Global frequency set at 1000000000000 ticks per second
gem5 Simulator System.  https://www.gem5.org
gem5 is copyrighted software; use the --copyright option for details.

gem5 version 22.0.0.2
gem5 compiled Dec  8 2024 16:52:59
gem5 started Dec  8 2024 16:55:08
gem5 executing on ececomp4.ecn.purdue.edu, pid 37587
command line: ./build/ECE565-X86/gem5.opt --debug-flags=Zcache configs/spec/spec_se.py -b astar --l2cache

Arguments found!!!

Namespace(abs_max_tick=18446744073709551615, arm_iset='arm', at_instruction=False, bench=None, benchmark='astar', bp_type=None, cacheline_size=64, caches=False, checker=False, checkpoint_at_end=False, checkpoint_dir=None, checkpoint_restore=None, chroot=None, cmd='', cpu_clock='2GHz', cpu_type='AtomicSimpleCPU', data_trace_file='', dist=False, dist_rank=0, dist_server_name='127.0.0.1', dist_server_port=2200, dist_size=0, dist_sync_on_pseudo_op=False, dist_sync_repeat='0us', dist_sync_start='5200000000000t', elastic_trace_en=False, enable_dram_powerdown=False, env='', errout='', ethernet_linkdelay='10us', ethernet_linkspeed='10Gbps', external_memory_system=None, fast_forward=None, indirect_bp_type=None, init_param=0, initialize_only=False, input='', inst_trace_file='', interp_dir=None, is_switch=False, l1d_assoc=2, l1d_hwp_type=None, l1d_size='64kB', l1i_assoc=2, l1i_hwp_type=None, l1i_size='32kB', l2_assoc=8, l2_hwp_type=None, l2_size='2MB', l2cache=True, l3_assoc=16, l3_size='16MB', list_bp_types=None, list_cpu_types=None, list_hwp_types=None, list_indirect_bp_types=None, list_mem_types=None, list_rp_types=None, max_checkpoints=5, maxinsts=None, maxtime=None, mem_channels=1, mem_channels_intlv=0, mem_ranks=None, mem_size='8GB', mem_type='DDR3_1600_8x8', memchecker=False, num_cpus=1, num_dirs=1, num_l2caches=1, num_l3caches=1, num_work_ids=None, options='', output='', param=[], prog_interval=None, redirects=[], rel_max_tick=None, repeat_switch=None, restore_simpoint_checkpoint=False, restore_with_cpu='AtomicSimpleCPU', ruby=False, simpoint=False, simpoint_interval=10000000, simpoint_profile=False, smt=False, spec_input='ref', standard_switch=None, stats_root=[], sys_clock='1GHz', sys_voltage='1.0V', take_checkpoints=None, take_simpoint_checkpoints=None, tlm_memory=None, wait_gdb=False, warmup_insts=None, work_begin_checkpoint_count=None, work_begin_cpu_id_exit=None, work_begin_exit_count=None, work_cpus_checkpoint_count=None, work_end_checkpoint_count=None, work_end_exit_count=None, work_item_id=None)
**** REAL SIMULATION ****
      0: system.l2.tags: Tag of cacheblk entry is: 0xffffffffffffffff
      0: system.l2.tags: Tag of cacheblk entry is: 0xffffffffffffffff
      0: system.l2.tags: Tag of cacheblk entry is: 0xffffffffffffffff
      0: system.l2.tags: Tag of cacheblk entry is: 0xffffffffffffffff
      0: system.l2.tags: Tag of cacheblk entry is: 0xffffffffffffffff
      0: system.l2.tags: Tag of cacheblk entry is: 0xffffffffffffffff
      0: system.l2.tags: Tag of cacheblk entry is: 0xffffffffffffffff
      0: system.l2.tags: Tag of cacheblk entry is: 0xffffffffffffffff
   1500: system.l2.tags: Tag of cacheblk entry is: 0xffffffffffffffff
   1500: system.l2.tags: Tag of cacheblk entry is: 0xffffffffffffffff
   1500: system.l2.tags: Tag of cacheblk entry is: 0xffffffffffffffff
   1500: system.l2.tags: Tag of cacheblk entry is: 0xffffffffffffffff
   1500: system.l2.tags: Tag of cacheblk entry is: 0xffffffffffffffff
   1500: system.l2.tags: Tag of cacheblk entry is: 0xffffffffffffffff
   1500: system.l2.tags: Tag of cacheblk entry is: 0xffffffffffffffff
   1500: system.l2.tags: Tag of cacheblk entry is: 0xffffffffffffffff
   3000: system.l2.tags: Tag of cacheblk entry is: 0xffffffffffffffff
   3000: system.l2.tags: Tag of cacheblk entry is: 0xffffffffffffffff
   3000: system.l2.tags: Tag of cacheblk entry is: 0xffffffffffffffff
   3000: system.l2.tags: Tag of cacheblk entry is: 0xffffffffffffffff
   3000: system.l2.tags: Tag of cacheblk entry is: 0xffffffffffffffff
   3000: system.l2.tags: Tag of cacheblk entry is: 0xffffffffffffffff
   3000: system.l2.tags: Tag of cacheblk entry is: 0xffffffffffffffff
   3000: system.l2.tags: Tag of cacheblk entry is: 0xffffffffffffffff
  15500: system.l2.tags: Tag of cacheblk entry is: 0xffffffffffffffff
  15500: system.l2.tags: Tag of cacheblk entry is: 0xffffffffffffffff
  15500: system.l2.tags: Tag of cacheblk entry is: 0xffffffffffffffff
  15500: system.l2.tags: Tag of cacheblk entry is: 0xffffffffffffffff
  15500: system.l2.tags: Tag of cacheblk entry is: 0xffffffffffffffff
  15500: system.l2.tags: Tag of cacheblk entry is: 0xffffffffffffffff
  15500: system.l2.tags: Tag of cacheblk entry is: 0xffffffffffffffff
  15500: system.l2.tags: Tag of cacheblk entry is: 0xffffffffffffffff
  17000: system.l2.tags: Tag of cacheblk entry is: 0xffffffffffffffff
  17000: system.l2.tags: Tag of cacheblk entry is: 0xffffffffffffffff
  17000: system.l2.tags: Tag of cacheblk entry is: 0xffffffffffffffff
  17000: system.l2.tags: Tag of cacheblk entry is: 0xffffffffffffffff
  17000: system.l2.tags: Tag of cacheblk entry is: 0xffffffffffffffff
  17000: system.l2.tags: Tag of cacheblk entry is: 0xffffffffffffffff
  17000: system.l2.tags: Tag of cacheblk entry is: 0xffffffffffffffff
  17000: system.l2.tags: Tag of cacheblk entry is: 0xffffffffffffffff
  18000: system.l2.tags: Tag of cacheblk entry is: 0xffffffffffffffff
  18000: system.l2.tags: Tag of cacheblk entry is: 0xffffffffffffffff
  18000: system.l2.tags: Tag of cacheblk entry is: 0xffffffffffffffff
  18000: system.l2.tags: Tag of cacheblk entry is: 0xffffffffffffffff
  18000: system.l2.tags: Tag of cacheblk entry is: 0xffffffffffffffff
  18000: system.l2.tags: Tag of cacheblk entry is: 0xffffffffffffffff
  18000: system.l2.tags: Tag of cacheblk entry is: 0xffffffffffffffff
  18000: system.l2.tags: Tag of cacheblk entry is: 0xffffffffffffffff
  20500: system.l2.tags: Tag of cacheblk entry is: 0xffffffffffffffff
  20500: system.l2.tags: Tag of cacheblk entry is: 0xffffffffffffffff
  20500: system.l2.tags: Tag of cacheblk entry is: 0xffffffffffffffff
  20500: system.l2.tags: Tag of cacheblk entry is: 0xffffffffffffffff
  20500: system.l2.tags: Tag of cacheblk entry is: 0xffffffffffffffff
  20500: system.l2.tags: Tag of cacheblk entry is: 0xffffffffffffffff
  20500: system.l2.tags: Tag of cacheblk entry is: 0xffffffffffffffff
  20500: system.l2.tags: Tag of cacheblk entry is: 0xffffffffffffffff
  23000: system.l2.tags: Tag of cacheblk entry is: 0xffffffffffffffff
  23000: system.l2.tags: Tag of cacheblk entry is: 0xffffffffffffffff
  23000: system.l2.tags: Tag of cacheblk entry is: 0xffffffffffffffff
  23000: system.l2.tags: Tag of cacheblk entry is: 0xffffffffffffffff
  23000: system.l2.tags: Tag of cacheblk entry is: 0xffffffffffffffff
  23000: system.l2.tags: Tag of cacheblk entry is: 0xffffffffffffffff
  23000: system.l2.tags: Tag of cacheblk entry is: 0xffffffffffffffff
  23000: system.l2.tags: Tag of cacheblk entry is: 0xffffffffffffffff
  30000: system.l2.tags: Tag of cacheblk entry is: 0xffffffffffffffff
  30000: system.l2.tags: Tag of cacheblk entry is: 0xffffffffffffffff
  30000: system.l2.tags: Tag of cacheblk entry is: 0xffffffffffffffff
  30000: system.l2.tags: Tag of cacheblk entry is: 0xffffffffffffffff
  30000: system.l2.tags: Tag of cacheblk entry is: 0xffffffffffffffff
  30000: system.l2.tags: Tag of cacheblk entry is: 0xffffffffffffffff
  30000: system.l2.tags: Tag of cacheblk entry is: 0xffffffffffffffff
  30000: system.l2.tags: Tag of cacheblk entry is: 0xffffffffffffffff
  37500: system.l2.tags: Tag of cacheblk entry is: 0xffffffffffffffff
  37500: system.l2.tags: Tag of cacheblk entry is: 0xffffffffffffffff
  37500: system.l2.tags: Tag of cacheblk entry is: 0xffffffffffffffff
  37500: system.l2.tags: Tag of cacheblk entry is: 0xffffffffffffffff
  37500: system.l2.tags: Tag of cacheblk entry is: 0xffffffffffffffff
  37500: system.l2.tags: Tag of cacheblk entry is: 0xffffffffffffffff
  37500: system.l2.tags: Tag of cacheblk entry is: 0xffffffffffffffff
  37500: system.l2.tags: Tag of cacheblk entry is: 0xffffffffffffffff
  41500: system.l2.tags: Tag of cacheblk entry is: 0xffffffffffffffff
  41500: system.l2.tags: Tag of cacheblk entry is: 0xffffffffffffffff
  41500: system.l2.tags: Tag of cacheblk entry is: 0xffffffffffffffff
  41500: system.l2.tags: Tag of cacheblk entry is: 0xffffffffffffffff
  41500: system.l2.tags: Tag of cacheblk entry is: 0xffffffffffffffff
  41500: system.l2.tags: Tag of cacheblk entry is: 0xffffffffffffffff
  41500: system.l2.tags: Tag of cacheblk entry is: 0xffffffffffffffff
  41500: system.l2.tags: Tag of cacheblk entry is: 0xffffffffffffffff
  50500: system.l2.tags: Tag of cacheblk entry is: 0xffffffffffffffff
  50500: system.l2.tags: Tag of cacheblk entry is: 0xffffffffffffffff
  50500: system.l2.tags: Tag of cacheblk entry is: 0xffffffffffffffff
  50500: system.l2.tags: Tag of cacheblk entry is: 0xffffffffffffffff
  50500: system.l2.tags: Tag of cacheblk entry is: 0xffffffffffffffff
  50500: system.l2.tags: Tag of cacheblk entry is: 0xffffffffffffffff
  50500: system.l2.tags: Tag of cacheblk entry is: 0xffffffffffffffff
  50500: system.l2.tags: Tag of cacheblk entry is: 0xffffffffffffffff
  62000: system.l2.tags: Tag of cacheblk entry is: 0xffffffffffffffff
  62000: system.l2.tags: Tag of cacheblk entry is: 0xffffffffffffffff
  62000: system.l2.tags: Tag of cacheblk entry is: 0xffffffffffffffff
  62000: system.l2.tags: Tag of cacheblk entry is: 0xffffffffffffffff
  62000: system.l2.tags: Tag of cacheblk entry is: 0xffffffffffffffff
  62000: system.l2.tags: Tag of cacheblk entry is: 0xffffffffffffffff
  62000: system.l2.tags: Tag of cacheblk entry is: 0xffffffffffffffff
  62000: system.l2.tags: Tag of cacheblk entry is: 0xffffffffffffffff
  65500: system.l2.tags: Tag of cacheblk entry is: 0xffffffffffffffff
  65500: system.l2.tags: Tag of cacheblk entry is: 0xffffffffffffffff
  65500: system.l2.tags: Tag of cacheblk entry is: 0xffffffffffffffff
  65500: system.l2.tags: Tag of cacheblk entry is: 0xffffffffffffffff
  65500: system.l2.tags: Tag of cacheblk entry is: 0xffffffffffffffff
  65500: system.l2.tags: Tag of cacheblk entry is: 0xffffffffffffffff
  65500: system.l2.tags: Tag of cacheblk entry is: 0xffffffffffffffff
  65500: system.l2.tags: Tag of cacheblk entry is: 0xffffffffffffffff
  73500: system.l2.tags: Tag of cacheblk entry is: 0xffffffffffffffff
  73500: system.l2.tags: Tag of cacheblk entry is: 0xffffffffffffffff
  73500: system.l2.tags: Tag of cacheblk entry is: 0xffffffffffffffff
  73500: system.l2.tags: Tag of cacheblk entry is: 0xffffffffffffffff
  73500: system.l2.tags: Tag of cacheblk entry is: 0xffffffffffffffff
  73500: system.l2.tags: Tag of cacheblk entry is: 0xffffffffffffffff
  73500: system.l2.tags: Tag of cacheblk entry is: 0xffffffffffffffff
  73500: system.l2.tags: Tag of cacheblk entry is: 0xffffffffffffffff
  74000: system.l2.tags: Tag of cacheblk entry is: 0xffffffffffffffff
  74000: system.l2.tags: Tag of cacheblk entry is: 0xffffffffffffffff
  74000: system.l2.tags: Tag of cacheblk entry is: 0xffffffffffffffff
  74000: system.l2.tags: Tag of cacheblk entry is: 0xffffffffffffffff
  74000: system.l2.tags: Tag of cacheblk entry is: 0xffffffffffffffff
  74000: system.l2.tags: Tag of cacheblk entry is: 0xffffffffffffffff
  74000: system.l2.tags: Tag of cacheblk entry is: 0xffffffffffffffff
  74000: system.l2.tags: Tag of cacheblk entry is: 0xffffffffffffffff
  85000: system.l2.tags: Tag of cacheblk entry is: 0xffffffffffffffff
  85000: system.l2.tags: Tag of cacheblk entry is: 0xffffffffffffffff
  85000: system.l2.tags: Tag of cacheblk entry is: 0xffffffffffffffff
  85000: system.l2.tags: Tag of cacheblk entry is: 0xffffffffffffffff
  85000: system.l2.tags: Tag of cacheblk entry is: 0xffffffffffffffff
  85000: system.l2.tags: Tag of cacheblk entry is: 0xffffffffffffffff
  85000: system.l2.tags: Tag of cacheblk entry is: 0xffffffffffffffff
  85000: system.l2.tags: Tag of cacheblk entry is: 0xffffffffffffffff
  87000: system.l2.tags: Tag of cacheblk entry is: 0xffffffffffffffff
  87000: system.l2.tags: Tag of cacheblk entry is: 0xffffffffffffffff
  87000: system.l2.tags: Tag of cacheblk entry is: 0xffffffffffffffff
  87000: system.l2.tags: Tag of cacheblk entry is: 0xffffffffffffffff
  87000: system.l2.tags: Tag of cacheblk entry is: 0xffffffffffffffff
  87000: system.l2.tags: Tag of cacheblk entry is: 0xffffffffffffffff
  87000: system.l2.tags: Tag of cacheblk entry is: 0xffffffffffffffff
  87000: system.l2.tags: Tag of cacheblk entry is: 0xffffffffffffffff
 123000: system.l2.tags: Tag of cacheblk entry is: 0xffffffffffffffff
 123000: system.l2.tags: Tag of cacheblk entry is: 0xffffffffffffffff
 123000: system.l2.tags: Tag of cacheblk entry is: 0xffffffffffffffff
 123000: system.l2.tags: Tag of cacheblk entry is: 0xffffffffffffffff
 123000: system.l2.tags: Tag of cacheblk entry is: 0xffffffffffffffff
 123000: system.l2.tags: Tag of cacheblk entry is: 0xffffffffffffffff
 123000: system.l2.tags: Tag of cacheblk entry is: 0xffffffffffffffff
 123000: system.l2.tags: Tag of cacheblk entry is: 0xffffffffffffffff
 148000: system.l2.tags: Tag of cacheblk entry is: 0xffffffffffffffff
 148000: system.l2.tags: Tag of cacheblk entry is: 0xffffffffffffffff
 148000: system.l2.tags: Tag of cacheblk entry is: 0xffffffffffffffff
 148000: system.l2.tags: Tag of cacheblk entry is: 0xffffffffffffffff
 148000: system.l2.tags: Tag of cacheblk entry is: 0xffffffffffffffff
 148000: system.l2.tags: Tag of cacheblk entry is: 0xffffffffffffffff
 148000: system.l2.tags: Tag of cacheblk entry is: 0xffffffffffffffff
 148000: system.l2.tags: Tag of cacheblk entry is: 0xffffffffffffffff
 159000: system.l2.tags: Tag of cacheblk entry is: 0xffffffffffffffff
 159000: system.l2.tags: Tag of cacheblk entry is: 0xffffffffffffffff
 159000: system.l2.tags: Tag of cacheblk entry is: 0xffffffffffffffff
 159000: system.l2.tags: Tag of cacheblk entry is: 0xffffffffffffffff
 159000: system.l2.tags: Tag of cacheblk entry is: 0xffffffffffffffff
 159000: system.l2.tags: Tag of cacheblk entry is: 0xffffffffffffffff
 159000: system.l2.tags: Tag of cacheblk entry is: 0xffffffffffffffff
 159000: system.l2.tags: Tag of cacheblk entry is: 0xffffffffffffffff
 189000: system.l2.tags: Tag of cacheblk entry is: 0xffffffffffffffff
 189000: system.l2.tags: Tag of cacheblk entry is: 0xffffffffffffffff
 189000: system.l2.tags: Tag of cacheblk entry is: 0xffffffffffffffff
 189000: system.l2.tags: Tag of cacheblk entry is: 0xffffffffffffffff
 189000: system.l2.tags: Tag of cacheblk entry is: 0xffffffffffffffff
 189000: system.l2.tags: Tag of cacheblk entry is: 0xffffffffffffffff
 189000: system.l2.tags: Tag of cacheblk entry is: 0xffffffffffffffff
 189000: system.l2.tags: Tag of cacheblk entry is: 0xffffffffffffffff
 203000: system.l2.tags: Tag of cacheblk entry is: 0xffffffffffffffff
 203000: system.l2.tags: Tag of cacheblk entry is: 0xffffffffffffffff
 203000: system.l2.tags: Tag of cacheblk entry is: 0xffffffffffffffff
 203000: system.l2.tags: Tag of cacheblk entry is: 0xffffffffffffffff
 203000: system.l2.tags: Tag of cacheblk entry is: 0xffffffffffffffff
 203000: system.l2.tags: Tag of cacheblk entry is: 0xffffffffffffffff
 203000: system.l2.tags: Tag of cacheblk entry is: 0xffffffffffffffff
 203000: system.l2.tags: Tag of cacheblk entry is: 0xffffffffffffffff
 205000: system.l2.tags: Tag of cacheblk entry is: 0xffffffffffffffff
 205000: system.l2.tags: Tag of cacheblk entry is: 0xffffffffffffffff
 205000: system.l2.tags: Tag of cacheblk entry is: 0xffffffffffffffff
 205000: system.l2.tags: Tag of cacheblk entry is: 0xffffffffffffffff
 205000: system.l2.tags: Tag of cacheblk entry is: 0xffffffffffffffff
 205000: system.l2.tags: Tag of cacheblk entry is: 0xffffffffffffffff
 205000: system.l2.tags: Tag of cacheblk entry is: 0xffffffffffffffff
 205000: system.l2.tags: Tag of cacheblk entry is: 0xffffffffffffffff
 240000: system.l2.tags: Tag of cacheblk entry is: 0xffffffffffffffff
 240000: system.l2.tags: Tag of cacheblk entry is: 0xffffffffffffffff
 240000: system.l2.tags: Tag of cacheblk entry is: 0xffffffffffffffff
 240000: system.l2.tags: Tag of cacheblk entry is: 0xffffffffffffffff
 240000: system.l2.tags: Tag of cacheblk entry is: 0xffffffffffffffff
 240000: system.l2.tags: Tag of cacheblk entry is: 0xffffffffffffffff
 240000: system.l2.tags: Tag of cacheblk entry is: 0xffffffffffffffff
 240000: system.l2.tags: Tag of cacheblk entry is: 0xffffffffffffffff
 256000: system.l2.tags: Tag of cacheblk entry is: 0xffffffffffffffff
 256000: system.l2.tags: Tag of cacheblk entry is: 0xffffffffffffffff
 256000: system.l2.tags: Tag of cacheblk entry is: 0xffffffffffffffff
 256000: system.l2.tags: Tag of cacheblk entry is: 0xffffffffffffffff
 256000: system.l2.tags: Tag of cacheblk entry is: 0xffffffffffffffff
 256000: system.l2.tags: Tag of cacheblk entry is: 0xffffffffffffffff
 256000: system.l2.tags: Tag of cacheblk entry is: 0xffffffffffffffff
 256000: system.l2.tags: Tag of cacheblk entry is: 0xffffffffffffffff
 261500: system.l2.tags: Tag of cacheblk entry is: 0xffffffffffffffff
 261500: system.l2.tags: Tag of cacheblk entry is: 0xffffffffffffffff
 261500: system.l2.tags: Tag of cacheblk entry is: 0xffffffffffffffff
 261500: system.l2.tags: Tag of cacheblk entry is: 0xffffffffffffffff
 261500: system.l2.tags: Tag of cacheblk entry is: 0xffffffffffffffff
 261500: system.l2.tags: Tag of cacheblk entry is: 0xffffffffffffffff
 261500: system.l2.tags: Tag of cacheblk entry is: 0xffffffffffffffff
 261500: system.l2.tags: Tag of cacheblk entry is: 0xffffffffffffffff
 283500: system.l2.tags: Tag of cacheblk entry is: 0xffffffffffffffff
 283500: system.l2.tags: Tag of cacheblk entry is: 0xffffffffffffffff
 283500: system.l2.tags: Tag of cacheblk entry is: 0xffffffffffffffff
 283500: system.l2.tags: Tag of cacheblk entry is: 0xffffffffffffffff
 283500: system.l2.tags: Tag of cacheblk entry is: 0xffffffffffffffff
 283500: system.l2.tags: Tag of cacheblk entry is: 0xffffffffffffffff
 283500: system.l2.tags: Tag of cacheblk entry is: 0xffffffffffffffff
 283500: system.l2.tags: Tag of cacheblk entry is: 0xffffffffffffffff
 306000: system.l2.tags: Tag of cacheblk entry is: 0xffffffffffffffff
 306000: system.l2.tags: Tag of cacheblk entry is: 0xffffffffffffffff
 306000: system.l2.tags: Tag of cacheblk entry is: 0xffffffffffffffff
 306000: system.l2.tags: Tag of cacheblk entry is: 0xffffffffffffffff
 306000: system.l2.tags: Tag of cacheblk entry is: 0xffffffffffffffff
 306000: system.l2.tags: Tag of cacheblk entry is: 0xffffffffffffffff
 306000: system.l2.tags: Tag of cacheblk entry is: 0xffffffffffffffff
 306000: system.l2.tags: Tag of cacheblk entry is: 0xffffffffffffffff
 320000: system.l2.tags: Tag of cacheblk entry is: 0xffffffffffffffff
 320000: system.l2.tags: Tag of cacheblk entry is: 0xffffffffffffffff
 320000: system.l2.tags: Tag of cacheblk entry is: 0xffffffffffffffff
 320000: system.l2.tags: Tag of cacheblk entry is: 0xffffffffffffffff
 320000: system.l2.tags: Tag of cacheblk entry is: 0xffffffffffffffff
 320000: system.l2.tags: Tag of cacheblk entry is: 0xffffffffffffffff
 320000: system.l2.tags: Tag of cacheblk entry is: 0xffffffffffffffff
 320000: system.l2.tags: Tag of cacheblk entry is: 0xffffffffffffffff
 336000: system.l2.tags: Tag of cacheblk entry is: 0xffffffffffffffff
 336000: system.l2.tags: Tag of cacheblk entry is: 0xffffffffffffffff
 336000: system.l2.tags: Tag of cacheblk entry is: 0xffffffffffffffff
 336000: system.l2.tags: Tag of cacheblk entry is: 0xffffffffffffffff
 336000: system.l2.tags: Tag of cacheblk entry is: 0xffffffffffffffff
 336000: system.l2.tags: Tag of cacheblk entry is: 0xffffffffffffffff
 336000: system.l2.tags: Tag of cacheblk entry is: 0xffffffffffffffff
 336000: system.l2.tags: Tag of cacheblk entry is: 0xffffffffffffffff
 342500: system.l2.tags: Tag of cacheblk entry is: 0xffffffffffffffff
 342500: system.l2.tags: Tag of cacheblk entry is: 0xffffffffffffffff
 342500: system.l2.tags: Tag of cacheblk entry is: 0xffffffffffffffff
 342500: system.l2.tags: Tag of cacheblk entry is: 0xffffffffffffffff
 342500: system.l2.tags: Tag of cacheblk entry is: 0xffffffffffffffff
 342500: system.l2.tags: Tag of cacheblk entry is: 0xffffffffffffffff
 342500: system.l2.tags: Tag of cacheblk entry is: 0xffffffffffffffff
 342500: system.l2.tags: Tag of cacheblk entry is: 0xffffffffffffffff
 344000: system.l2.tags: Tag of cacheblk entry is: 0xffffffffffffffff
 344000: system.l2.tags: Tag of cacheblk entry is: 0xffffffffffffffff
 344000: system.l2.tags: Tag of cacheblk entry is: 0xffffffffffffffff
 344000: system.l2.tags: Tag of cacheblk entry is: 0xffffffffffffffff
 344000: system.l2.tags: Tag of cacheblk entry is: 0xffffffffffffffff
 344000: system.l2.tags: Tag of cacheblk entry is: 0xffffffffffffffff
 344000: system.l2.tags: Tag of cacheblk entry is: 0xffffffffffffffff
 344000: system.l2.tags: Tag of cacheblk entry is: 0xffffffffffffffff
 346500: system.l2.tags: Tag of cacheblk entry is: 0xffffffffffffffff
 346500: system.l2.tags: Tag of cacheblk entry is: 0xffffffffffffffff
 346500: system.l2.tags: Tag of cacheblk entry is: 0xffffffffffffffff
 346500: system.l2.tags: Tag of cacheblk entry is: 0xffffffffffffffff
 346500: system.l2.tags: Tag of cacheblk entry is: 0xffffffffffffffff
 346500: system.l2.tags: Tag of cacheblk entry is: 0xffffffffffffffff
 346500: system.l2.tags: Tag of cacheblk entry is: 0xffffffffffffffff
 346500: system.l2.tags: Tag of cacheblk entry is: 0xffffffffffffffff
 362000: system.l2.tags: Tag of cacheblk entry is: 0xffffffffffffffff
 362000: system.l2.tags: Tag of cacheblk entry is: 0xffffffffffffffff
 362000: system.l2.tags: Tag of cacheblk entry is: 0xffffffffffffffff
 362000: system.l2.tags: Tag of cacheblk entry is: 0xffffffffffffffff
 362000: system.l2.tags: Tag of cacheblk entry is: 0xffffffffffffffff
 362000: system.l2.tags: Tag of cacheblk entry is: 0xffffffffffffffff
 362000: system.l2.tags: Tag of cacheblk entry is: 0xffffffffffffffff
 362000: system.l2.tags: Tag of cacheblk entry is: 0xffffffffffffffff
 372500: system.l2.tags: Tag of cacheblk entry is: 0xffffffffffffffff
 372500: system.l2.tags: Tag of cacheblk entry is: 0xffffffffffffffff
 372500: system.l2.tags: Tag of cacheblk entry is: 0xffffffffffffffff
 372500: system.l2.tags: Tag of cacheblk entry is: 0xffffffffffffffff
 372500: system.l2.tags: Tag of cacheblk entry is: 0xffffffffffffffff
 372500: system.l2.tags: Tag of cacheblk entry is: 0xffffffffffffffff
 372500: system.l2.tags: Tag of cacheblk entry is: 0xffffffffffffffff
 372500: system.l2.tags: Tag of cacheblk entry is: 0xffffffffffffffff
 381500: system.l2.tags: Tag of cacheblk entry is: 0xffffffffffffffff
 381500: system.l2.tags: Tag of cacheblk entry is: 0xffffffffffffffff
 381500: system.l2.tags: Tag of cacheblk entry is: 0xffffffffffffffff
 381500: system.l2.tags: Tag of cacheblk entry is: 0xffffffffffffffff
 381500: system.l2.tags: Tag of cacheblk entry is: 0xffffffffffffffff
 381500: system.l2.tags: Tag of cacheblk entry is: 0xffffffffffffffff
 381500: system.l2.tags: Tag of cacheblk entry is: 0xffffffffffffffff
 381500: system.l2.tags: Tag of cacheblk entry is: 0xffffffffffffffff
 394500: system.l2.tags: Tag of cacheblk entry is: 0xffffffffffffffff
 394500: system.l2.tags: Tag of cacheblk entry is: 0xffffffffffffffff
 394500: system.l2.tags: Tag of cacheblk entry is: 0xffffffffffffffff
 394500: system.l2.tags: Tag of cacheblk entry is: 0xffffffffffffffff
 394500: system.l2.tags: Tag of cacheblk entry is: 0xffffffffffffffff
 394500: system.l2.tags: Tag of cacheblk entry is: 0xffffffffffffffff
 394500: system.l2.tags: Tag of cacheblk entry is: 0xffffffffffffffff
 394500: system.l2.tags: Tag of cacheblk entry is: 0xffffffffffffffff
 411500: system.l2.tags: Tag of cacheblk entry is: 0xffffffffffffffff
 411500: system.l2.tags: Tag of cacheblk entry is: 0xffffffffffffffff
 411500: system.l2.tags: Tag of cacheblk entry is: 0xffffffffffffffff
 411500: system.l2.tags: Tag of cacheblk entry is: 0xffffffffffffffff
 411500: system.l2.tags: Tag of cacheblk entry is: 0xffffffffffffffff
 411500: system.l2.tags: Tag of cacheblk entry is: 0xffffffffffffffff
 411500: system.l2.tags: Tag of cacheblk entry is: 0xffffffffffffffff
 411500: system.l2.tags: Tag of cacheblk entry is: 0xffffffffffffffff
 422000: system.l2.tags: Tag of cacheblk entry is: 0xffffffffffffffff
 422000: system.l2.tags: Tag of cacheblk entry is: 0xffffffffffffffff
 422000: system.l2.tags: Tag of cacheblk entry is: 0xffffffffffffffff
 422000: system.l2.tags: Tag of cacheblk entry is: 0xffffffffffffffff
 422000: system.l2.tags: Tag of cacheblk entry is: 0xffffffffffffffff
 422000: system.l2.tags: Tag of cacheblk entry is: 0xffffffffffffffff
 422000: system.l2.tags: Tag of cacheblk entry is: 0xffffffffffffffff
 422000: system.l2.tags: Tag of cacheblk entry is: 0xffffffffffffffff
 434000: system.l2.tags: Tag of cacheblk entry is: 0xffffffffffffffff
 434000: system.l2.tags: Tag of cacheblk entry is: 0xffffffffffffffff
 434000: system.l2.tags: Tag of cacheblk entry is: 0xffffffffffffffff
 434000: system.l2.tags: Tag of cacheblk entry is: 0xffffffffffffffff
 434000: system.l2.tags: Tag of cacheblk entry is: 0xffffffffffffffff
 434000: system.l2.tags: Tag of cacheblk entry is: 0xffffffffffffffff
 434000: system.l2.tags: Tag of cacheblk entry is: 0xffffffffffffffff
 434000: system.l2.tags: Tag of cacheblk entry is: 0xffffffffffffffff
 436500: system.l2.tags: Tag of cacheblk entry is: 0xffffffffffffffff
 436500: system.l2.tags: Tag of cacheblk entry is: 0xffffffffffffffff
 436500: system.l2.tags: Tag of cacheblk entry is: 0xffffffffffffffff
 436500: system.l2.tags: Tag of cacheblk entry is: 0xffffffffffffffff
 436500: system.l2.tags: Tag of cacheblk entry is: 0xffffffffffffffff
 436500: system.l2.tags: Tag of cacheblk entry is: 0xffffffffffffffff
 436500: system.l2.tags: Tag of cacheblk entry is: 0xffffffffffffffff
 436500: system.l2.tags: Tag of cacheblk entry is: 0xffffffffffffffff
 438000: system.l2.tags: Tag of cacheblk entry is: 0xffffffffffffffff
 438000: system.l2.tags: Tag of cacheblk entry is: 0xffffffffffffffff
 438000: system.l2.tags: Tag of cacheblk entry is: 0xffffffffffffffff
 438000: system.l2.tags: Tag of cacheblk entry is: 0xffffffffffffffff
 438000: system.l2.tags: Tag of cacheblk entry is: 0xffffffffffffffff
 438000: system.l2.tags: Tag of cacheblk entry is: 0xffffffffffffffff
 438000: system.l2.tags: Tag of cacheblk entry is: 0xffffffffffffffff
 438000: system.l2.tags: Tag of cacheblk entry is: 0xffffffffffffffff
 442000: system.l2.tags: Tag of cacheblk entry is: 0xffffffffffffffff
 442000: system.l2.tags: Tag of cacheblk entry is: 0xffffffffffffffff
 442000: system.l2.tags: Tag of cacheblk entry is: 0xffffffffffffffff
 442000: system.l2.tags: Tag of cacheblk entry is: 0xffffffffffffffff
 442000: system.l2.tags: Tag of cacheblk entry is: 0xffffffffffffffff
 442000: system.l2.tags: Tag of cacheblk entry is: 0xffffffffffffffff
 442000: system.l2.tags: Tag of cacheblk entry is: 0xffffffffffffffff
 442000: system.l2.tags: Tag of cacheblk entry is: 0xffffffffffffffff
 452500: system.l2.tags: Tag of cacheblk entry is: 0xffffffffffffffff
 452500: system.l2.tags: Tag of cacheblk entry is: 0xffffffffffffffff
 452500: system.l2.tags: Tag of cacheblk entry is: 0xffffffffffffffff
 452500: system.l2.tags: Tag of cacheblk entry is: 0xffffffffffffffff
 452500: system.l2.tags: Tag of cacheblk entry is: 0xffffffffffffffff
 452500: system.l2.tags: Tag of cacheblk entry is: 0xffffffffffffffff
 452500: system.l2.tags: Tag of cacheblk entry is: 0xffffffffffffffff
 452500: system.l2.tags: Tag of cacheblk entry is: 0xffffffffffffffff
 483000: system.l2.tags: Tag of cacheblk entry is: 0xffffffffffffffff
 483000: system.l2.tags: Tag of cacheblk entry is: 0xffffffffffffffff
 483000: system.l2.tags: Tag of cacheblk entry is: 0xffffffffffffffff
 483000: system.l2.tags: Tag of cacheblk entry is: 0xffffffffffffffff
 483000: system.l2.tags: Tag of cacheblk entry is: 0xffffffffffffffff
 483000: system.l2.tags: Tag of cacheblk entry is: 0xffffffffffffffff
 483000: system.l2.tags: Tag of cacheblk entry is: 0xffffffffffffffff
 483000: system.l2.tags: Tag of cacheblk entry is: 0xffffffffffffffff
 533500: system.l2.tags: Tag of cacheblk entry is: 0xffffffffffffffff
 533500: system.l2.tags: Tag of cacheblk entry is: 0xffffffffffffffff
 533500: system.l2.tags: Tag of cacheblk entry is: 0xffffffffffffffff
 533500: system.l2.tags: Tag of cacheblk entry is: 0xffffffffffffffff
 533500: system.l2.tags: Tag of cacheblk entry is: 0xffffffffffffffff
 533500: system.l2.tags: Tag of cacheblk entry is: 0xffffffffffffffff
 533500: system.l2.tags: Tag of cacheblk entry is: 0xffffffffffffffff
 533500: system.l2.tags: Tag of cacheblk entry is: 0xffffffffffffffff
 544000: system.l2.tags: Tag of cacheblk entry is: 0xffffffffffffffff
 544000: system.l2.tags: Tag of cacheblk entry is: 0xffffffffffffffff
 544000: system.l2.tags: Tag of cacheblk entry is: 0xffffffffffffffff
 544000: system.l2.tags: Tag of cacheblk entry is: 0xffffffffffffffff
 544000: system.l2.tags: Tag of cacheblk entry is: 0xffffffffffffffff
 544000: system.l2.tags: Tag of cacheblk entry is: 0xffffffffffffffff
 544000: system.l2.tags: Tag of cacheblk entry is: 0xffffffffffffffff
 544000: system.l2.tags: Tag of cacheblk entry is: 0xffffffffffffffff
 545000: system.l2.tags: Tag of cacheblk entry is: 0xffffffffffffffff
 545000: system.l2.tags: Tag of cacheblk entry is: 0xffffffffffffffff
 545000: system.l2.tags: Tag of cacheblk entry is: 0xffffffffffffffff
 545000: system.l2.tags: Tag of cacheblk entry is: 0xffffffffffffffff
 545000: system.l2.tags: Tag of cacheblk entry is: 0xffffffffffffffff
 545000: system.l2.tags: Tag of cacheblk entry is: 0xffffffffffffffff
 545000: system.l2.tags: Tag of cacheblk entry is: 0xffffffffffffffff
 545000: system.l2.tags: Tag of cacheblk entry is: 0xffffffffffffffff
 605000: system.l2.tags: Tag of cacheblk entry is: 0xffffffffffffffff
 605000: system.l2.tags: Tag of cacheblk entry is: 0xffffffffffffffff
 605000: system.l2.tags: Tag of cacheblk entry is: 0xffffffffffffffff
 605000: system.l2.tags: Tag of cacheblk entry is: 0xffffffffffffffff
 605000: system.l2.tags: Tag of cacheblk entry is: 0xffffffffffffffff
 605000: system.l2.tags: Tag of cacheblk entry is: 0xffffffffffffffff
 605000: system.l2.tags: Tag of cacheblk entry is: 0xffffffffffffffff
 605000: system.l2.tags: Tag of cacheblk entry is: 0xffffffffffffffff
 619500: system.l2.tags: Tag of cacheblk entry is: 0xffffffffffffffff
 619500: system.l2.tags: Tag of cacheblk entry is: 0xffffffffffffffff
 619500: system.l2.tags: Tag of cacheblk entry is: 0xffffffffffffffff
 619500: system.l2.tags: Tag of cacheblk entry is: 0xffffffffffffffff
 619500: system.l2.tags: Tag of cacheblk entry is: 0xffffffffffffffff
 619500: system.l2.tags: Tag of cacheblk entry is: 0xffffffffffffffff
 619500: system.l2.tags: Tag of cacheblk entry is: 0xffffffffffffffff
 619500: system.l2.tags: Tag of cacheblk entry is: 0xffffffffffffffff
 636500: system.l2.tags: Tag of cacheblk entry is: 0xffffffffffffffff
 636500: system.l2.tags: Tag of cacheblk entry is: 0xffffffffffffffff
 636500: system.l2.tags: Tag of cacheblk entry is: 0xffffffffffffffff
 636500: system.l2.tags: Tag of cacheblk entry is: 0xffffffffffffffff
 636500: system.l2.tags: Tag of cacheblk entry is: 0xffffffffffffffff
 636500: system.l2.tags: Tag of cacheblk entry is: 0xffffffffffffffff
 636500: system.l2.tags: Tag of cacheblk entry is: 0xffffffffffffffff
 636500: system.l2.tags: Tag of cacheblk entry is: 0xffffffffffffffff
 691000: system.l2.tags: Tag of cacheblk entry is: 0xffffffffffffffff
 691000: system.l2.tags: Tag of cacheblk entry is: 0xffffffffffffffff
 691000: system.l2.tags: Tag of cacheblk entry is: 0xffffffffffffffff
 691000: system.l2.tags: Tag of cacheblk entry is: 0xffffffffffffffff
 691000: system.l2.tags: Tag of cacheblk entry is: 0xffffffffffffffff
 691000: system.l2.tags: Tag of cacheblk entry is: 0xffffffffffffffff
 691000: system.l2.tags: Tag of cacheblk entry is: 0xffffffffffffffff
 691000: system.l2.tags: Tag of cacheblk entry is: 0xffffffffffffffff
 694000: system.l2.tags: Tag of cacheblk entry is: 0xffffffffffffffff
 694000: system.l2.tags: Tag of cacheblk entry is: 0xffffffffffffffff
 694000: system.l2.tags: Tag of cacheblk entry is: 0xffffffffffffffff
 694000: system.l2.tags: Tag of cacheblk entry is: 0xffffffffffffffff
 694000: system.l2.tags: Tag of cacheblk entry is: 0xffffffffffffffff
 694000: system.l2.tags: Tag of cacheblk entry is: 0xffffffffffffffff
 694000: system.l2.tags: Tag of cacheblk entry is: 0xffffffffffffffff
 694000: system.l2.tags: Tag of cacheblk entry is: 0xffffffffffffffff
 695500: system.l2.tags: Tag of cacheblk entry is: 0xffffffffffffffff
 695500: system.l2.tags: Tag of cacheblk entry is: 0xffffffffffffffff
 695500: system.l2.tags: Tag of cacheblk entry is: 0xffffffffffffffff
 695500: system.l2.tags: Tag of cacheblk entry is: 0xffffffffffffffff
 695500: system.l2.tags: Tag of cacheblk entry is: 0xffffffffffffffff
 695500: system.l2.tags: Tag of cacheblk entry is: 0xffffffffffffffff
 695500: system.l2.tags: Tag of cacheblk entry is: 0xffffffffffffffff
 695500: system.l2.tags: Tag of cacheblk entry is: 0xffffffffffffffff
 699000: system.l2.tags: Tag of cacheblk entry is: 0xffffffffffffffff
 699000: system.l2.tags: Tag of cacheblk entry is: 0xffffffffffffffff
 699000: system.l2.tags: Tag of cacheblk entry is: 0xffffffffffffffff
 699000: system.l2.tags: Tag of cacheblk entry is: 0xffffffffffffffff
 699000: system.l2.tags: Tag of cacheblk entry is: 0xffffffffffffffff
 699000: system.l2.tags: Tag of cacheblk entry is: 0xffffffffffffffff
 699000: system.l2.tags: Tag of cacheblk entry is: 0xffffffffffffffff
 699000: system.l2.tags: Tag of cacheblk entry is: 0xffffffffffffffff
 701500: system.l2.tags: Tag of cacheblk entry is: 0xffffffffffffffff
 701500: system.l2.tags: Tag of cacheblk entry is: 0xffffffffffffffff
 701500: system.l2.tags: Tag of cacheblk entry is: 0xffffffffffffffff
 701500: system.l2.tags: Tag of cacheblk entry is: 0xffffffffffffffff
 701500: system.l2.tags: Tag of cacheblk entry is: 0xffffffffffffffff
 701500: system.l2.tags: Tag of cacheblk entry is: 0xffffffffffffffff
 701500: system.l2.tags: Tag of cacheblk entry is: 0xffffffffffffffff
 701500: system.l2.tags: Tag of cacheblk entry is: 0xffffffffffffffff
 715000: system.l2.tags: Tag of cacheblk entry is: 0xffffffffffffffff
 715000: system.l2.tags: Tag of cacheblk entry is: 0xffffffffffffffff
 715000: system.l2.tags: Tag of cacheblk entry is: 0xffffffffffffffff
 715000: system.l2.tags: Tag of cacheblk entry is: 0xffffffffffffffff
 715000: system.l2.tags: Tag of cacheblk entry is: 0xffffffffffffffff
 715000: system.l2.tags: Tag of cacheblk entry is: 0xffffffffffffffff
 715000: system.l2.tags: Tag of cacheblk entry is: 0xffffffffffffffff
 715000: system.l2.tags: Tag of cacheblk entry is: 0xffffffffffffffff
 717000: system.l2.tags: Tag of cacheblk entry is: 0xffffffffffffffff
 717000: system.l2.tags: Tag of cacheblk entry is: 0xffffffffffffffff
 717000: system.l2.tags: Tag of cacheblk entry is: 0xffffffffffffffff
 717000: system.l2.tags: Tag of cacheblk entry is: 0xffffffffffffffff
 717000: system.l2.tags: Tag of cacheblk entry is: 0xffffffffffffffff
 717000: system.l2.tags: Tag of cacheblk entry is: 0xffffffffffffffff
 717000: system.l2.tags: Tag of cacheblk entry is: 0xffffffffffffffff
 717000: system.l2.tags: Tag of cacheblk entry is: 0xffffffffffffffff
 729000: system.l2.tags: Tag of cacheblk entry is: 0xffffffffffffffff
 729000: system.l2.tags: Tag of cacheblk entry is: 0xffffffffffffffff
 729000: system.l2.tags: Tag of cacheblk entry is: 0xffffffffffffffff
 729000: system.l2.tags: Tag of cacheblk entry is: 0xffffffffffffffff
 729000: system.l2.tags: Tag of cacheblk entry is: 0xffffffffffffffff
 729000: system.l2.tags: Tag of cacheblk entry is: 0xffffffffffffffff
 729000: system.l2.tags: Tag of cacheblk entry is: 0xffffffffffffffff
 729000: system.l2.tags: Tag of cacheblk entry is: 0xffffffffffffffff
 729500: system.l2.tags: Tag of cacheblk entry is: 0xffffffffffffffff
 729500: system.l2.tags: Tag of cacheblk entry is: 0xffffffffffffffff
 729500: system.l2.tags: Tag of cacheblk entry is: 0xffffffffffffffff
 729500: system.l2.tags: Tag of cacheblk entry is: 0xffffffffffffffff
 729500: system.l2.tags: Tag of cacheblk entry is: 0xffffffffffffffff
 729500: system.l2.tags: Tag of cacheblk entry is: 0xffffffffffffffff
 729500: system.l2.tags: Tag of cacheblk entry is: 0xffffffffffffffff
 729500: system.l2.tags: Tag of cacheblk entry is: 0xffffffffffffffff
 731000: system.l2.tags: Tag of cacheblk entry is: 0xffffffffffffffff
 731000: system.l2.tags: Tag of cacheblk entry is: 0xffffffffffffffff
 731000: system.l2.tags: Tag of cacheblk entry is: 0xffffffffffffffff
 731000: system.l2.tags: Tag of cacheblk entry is: 0xffffffffffffffff
 731000: system.l2.tags: Tag of cacheblk entry is: 0xffffffffffffffff
 731000: system.l2.tags: Tag of cacheblk entry is: 0xffffffffffffffff
 731000: system.l2.tags: Tag of cacheblk entry is: 0xffffffffffffffff
 731000: system.l2.tags: Tag of cacheblk entry is: 0xffffffffffffffff
 734500: system.l2.tags: Tag of cacheblk entry is: 0xffffffffffffffff
 734500: system.l2.tags: Tag of cacheblk entry is: 0xffffffffffffffff
 734500: system.l2.tags: Tag of cacheblk entry is: 0xffffffffffffffff
 734500: system.l2.tags: Tag of cacheblk entry is: 0xffffffffffffffff
 734500: system.l2.tags: Tag of cacheblk entry is: 0xffffffffffffffff
 734500: system.l2.tags: Tag of cacheblk entry is: 0xffffffffffffffff
 734500: system.l2.tags: Tag of cacheblk entry is: 0xffffffffffffffff
 734500: system.l2.tags: Tag of cacheblk entry is: 0xffffffffffffffff
 735500: system.l2.tags: Tag of cacheblk entry is: 0xffffffffffffffff
 735500: system.l2.tags: Tag of cacheblk entry is: 0xffffffffffffffff
 735500: system.l2.tags: Tag of cacheblk entry is: 0xffffffffffffffff
 735500: system.l2.tags: Tag of cacheblk entry is: 0xffffffffffffffff
 735500: system.l2.tags: Tag of cacheblk entry is: 0xffffffffffffffff
 735500: system.l2.tags: Tag of cacheblk entry is: 0xffffffffffffffff
 735500: system.l2.tags: Tag of cacheblk entry is: 0xffffffffffffffff
 735500: system.l2.tags: Tag of cacheblk entry is: 0xffffffffffffffff
 742000: system.l2.tags: Tag of cacheblk entry is: 0xffffffffffffffff
 742000: system.l2.tags: Tag of cacheblk entry is: 0xffffffffffffffff
 742000: system.l2.tags: Tag of cacheblk entry is: 0xffffffffffffffff
 742000: system.l2.tags: Tag of cacheblk entry is: 0xffffffffffffffff
 742000: system.l2.tags: Tag of cacheblk entry is: 0xffffffffffffffff
 742000: system.l2.tags: Tag of cacheblk entry is: 0xffffffffffffffff
 742000: system.l2.tags: Tag of cacheblk entry is: 0xffffffffffffffff
 742000: system.l2.tags: Tag of cacheblk entry is: 0xffffffffffffffff
 745000: system.l2.tags: Tag of cacheblk entry is: 0xffffffffffffffff
 745000: system.l2.tags: Tag of cacheblk entry is: 0xffffffffffffffff
 745000: system.l2.tags: Tag of cacheblk entry is: 0xffffffffffffffff
 745000: system.l2.tags: Tag of cacheblk entry is: 0xffffffffffffffff
 745000: system.l2.tags: Tag of cacheblk entry is: 0xffffffffffffffff
 745000: system.l2.tags: Tag of cacheblk entry is: 0xffffffffffffffff
 745000: system.l2.tags: Tag of cacheblk entry is: 0xffffffffffffffff
 745000: system.l2.tags: Tag of cacheblk entry is: 0xffffffffffffffff
 746000: system.l2.tags: Tag of cacheblk entry is: 0xffffffffffffffff
 746000: system.l2.tags: Tag of cacheblk entry is: 0xffffffffffffffff
 746000: system.l2.tags: Tag of cacheblk entry is: 0xffffffffffffffff
 746000: system.l2.tags: Tag of cacheblk entry is: 0xffffffffffffffff
 746000: system.l2.tags: Tag of cacheblk entry is: 0xffffffffffffffff
 746000: system.l2.tags: Tag of cacheblk entry is: 0xffffffffffffffff
 746000: system.l2.tags: Tag of cacheblk entry is: 0xffffffffffffffff
 746000: system.l2.tags: Tag of cacheblk entry is: 0xffffffffffffffff
 748000: system.l2.tags: Tag of cacheblk entry is: 0xffffffffffffffff
 748000: system.l2.tags: Tag of cacheblk entry is: 0xffffffffffffffff
 748000: system.l2.tags: Tag of cacheblk entry is: 0xffffffffffffffff
 748000: system.l2.tags: Tag of cacheblk entry is: 0xffffffffffffffff
 748000: system.l2.tags: Tag of cacheblk entry is: 0xffffffffffffffff
 748000: system.l2.tags: Tag of cacheblk entry is: 0xffffffffffffffff
 748000: system.l2.tags: Tag of cacheblk entry is: 0xffffffffffffffff
 748000: system.l2.tags: Tag of cacheblk entry is: 0xffffffffffffffff
 749500: system.l2.tags: Tag of cacheblk entry is: 0xffffffffffffffff
 749500: system.l2.tags: Tag of cacheblk entry is: 0xffffffffffffffff
 749500: system.l2.tags: Tag of cacheblk entry is: 0xffffffffffffffff
 749500: system.l2.tags: Tag of cacheblk entry is: 0xffffffffffffffff
 749500: system.l2.tags: Tag of cacheblk entry is: 0xffffffffffffffff
 749500: system.l2.tags: Tag of cacheblk entry is: 0xffffffffffffffff
 749500: system.l2.tags: Tag of cacheblk entry is: 0xffffffffffffffff
 749500: system.l2.tags: Tag of cacheblk entry is: 0xffffffffffffffff
 757500: system.l2.tags: Tag of cacheblk entry is: 0xffffffffffffffff
 757500: system.l2.tags: Tag of cacheblk entry is: 0xffffffffffffffff
 757500: system.l2.tags: Tag of cacheblk entry is: 0xffffffffffffffff
 757500: system.l2.tags: Tag of cacheblk entry is: 0xffffffffffffffff
 757500: system.l2.tags: Tag of cacheblk entry is: 0xffffffffffffffff
 757500: system.l2.tags: Tag of cacheblk entry is: 0xffffffffffffffff
 757500: system.l2.tags: Tag of cacheblk entry is: 0xffffffffffffffff
 757500: system.l2.tags: Tag of cacheblk entry is: 0xffffffffffffffff
 758500: system.l2.tags: Tag of cacheblk entry is: 0xffffffffffffffff
 758500: system.l2.tags: Tag of cacheblk entry is: 0xffffffffffffffff
 758500: system.l2.tags: Tag of cacheblk entry is: 0xffffffffffffffff
 758500: system.l2.tags: Tag of cacheblk entry is: 0xffffffffffffffff
 758500: system.l2.tags: Tag of cacheblk entry is: 0xffffffffffffffff
 758500: system.l2.tags: Tag of cacheblk entry is: 0xffffffffffffffff
 758500: system.l2.tags: Tag of cacheblk entry is: 0xffffffffffffffff
 758500: system.l2.tags: Tag of cacheblk entry is: 0xffffffffffffffff
 759000: system.l2.tags: Tag of cacheblk entry is: 0xffffffffffffffff
 759000: system.l2.tags: Tag of cacheblk entry is: 0xffffffffffffffff
 759000: system.l2.tags: Tag of cacheblk entry is: 0xffffffffffffffff
 759000: system.l2.tags: Tag of cacheblk entry is: 0xffffffffffffffff
 759000: system.l2.tags: Tag of cacheblk entry is: 0xffffffffffffffff
 759000: system.l2.tags: Tag of cacheblk entry is: 0xffffffffffffffff
 759000: system.l2.tags: Tag of cacheblk entry is: 0xffffffffffffffff
 759000: system.l2.tags: Tag of cacheblk entry is: 0xffffffffffffffff
 771500: system.l2.tags: Tag of cacheblk entry is: 0xffffffffffffffff
 771500: system.l2.tags: Tag of cacheblk entry is: 0xffffffffffffffff
 771500: system.l2.tags: Tag of cacheblk entry is: 0xffffffffffffffff
 771500: system.l2.tags: Tag of cacheblk entry is: 0xffffffffffffffff
 771500: system.l2.tags: Tag of cacheblk entry is: 0xffffffffffffffff
 771500: system.l2.tags: Tag of cacheblk entry is: 0xffffffffffffffff
 771500: system.l2.tags: Tag of cacheblk entry is: 0xffffffffffffffff
 771500: system.l2.tags: Tag of cacheblk entry is: 0xffffffffffffffff
 781000: system.l2.tags: Tag of cacheblk entry is: 0xffffffffffffffff
 781000: system.l2.tags: Tag of cacheblk entry is: 0xffffffffffffffff
 781000: system.l2.tags: Tag of cacheblk entry is: 0xffffffffffffffff
 781000: system.l2.tags: Tag of cacheblk entry is: 0xffffffffffffffff
 781000: system.l2.tags: Tag of cacheblk entry is: 0xffffffffffffffff
 781000: system.l2.tags: Tag of cacheblk entry is: 0xffffffffffffffff
 781000: system.l2.tags: Tag of cacheblk entry is: 0xffffffffffffffff
 781000: system.l2.tags: Tag of cacheblk entry is: 0xffffffffffffffff
 784500: system.l2.tags: Tag of cacheblk entry is: 0xffffffffffffffff
 784500: system.l2.tags: Tag of cacheblk entry is: 0xffffffffffffffff
 784500: system.l2.tags: Tag of cacheblk entry is: 0xffffffffffffffff
 784500: system.l2.tags: Tag of cacheblk entry is: 0xffffffffffffffff
 784500: system.l2.tags: Tag of cacheblk entry is: 0xffffffffffffffff
 784500: system.l2.tags: Tag of cacheblk entry is: 0xffffffffffffffff
 784500: system.l2.tags: Tag of cacheblk entry is: 0xffffffffffffffff
 784500: system.l2.tags: Tag of cacheblk entry is: 0xffffffffffffffff
 792000: system.l2.tags: Tag of cacheblk entry is: 0xffffffffffffffff
 792000: system.l2.tags: Tag of cacheblk entry is: 0xffffffffffffffff
 792000: system.l2.tags: Tag of cacheblk entry is: 0xffffffffffffffff
 792000: system.l2.tags: Tag of cacheblk entry is: 0xffffffffffffffff
 792000: system.l2.tags: Tag of cacheblk entry is: 0xffffffffffffffff
 792000: system.l2.tags: Tag of cacheblk entry is: 0xffffffffffffffff
 792000: system.l2.tags: Tag of cacheblk entry is: 0xffffffffffffffff
 792000: system.l2.tags: Tag of cacheblk entry is: 0xffffffffffffffff
 794500: system.l2.tags: Tag of cacheblk entry is: 0xffffffffffffffff
 794500: system.l2.tags: Tag of cacheblk entry is: 0xffffffffffffffff
 794500: system.l2.tags: Tag of cacheblk entry is: 0xffffffffffffffff
 794500: system.l2.tags: Tag of cacheblk entry is: 0xffffffffffffffff
 794500: system.l2.tags: Tag of cacheblk entry is: 0xffffffffffffffff
 794500: system.l2.tags: Tag of cacheblk entry is: 0xffffffffffffffff
 794500: system.l2.tags: Tag of cacheblk entry is: 0xffffffffffffffff
 794500: system.l2.tags: Tag of cacheblk entry is: 0xffffffffffffffff
 794500: system.l2.tags: Tag of cacheblk entry is: 0xffffffffffffffff
 794500: system.l2.tags: Tag of cacheblk entry is: 0xffffffffffffffff
 794500: system.l2.tags: Tag of cacheblk entry is: 0xffffffffffffffff
 794500: system.l2.tags: Tag of cacheblk entry is: 0xffffffffffffffff
 794500: system.l2.tags: Tag of cacheblk entry is: 0xffffffffffffffff
 794500: system.l2.tags: Tag of cacheblk entry is: 0xffffffffffffffff
 794500: system.l2.tags: Tag of cacheblk entry is: 0xffffffffffffffff
 794500: system.l2.tags: Tag of cacheblk entry is: 0xffffffffffffffff
 795500: system.l2.tags: Tag of cacheblk entry is: 0xffffffffffffffff
 795500: system.l2.tags: Tag of cacheblk entry is: 0xffffffffffffffff
 795500: system.l2.tags: Tag of cacheblk entry is: 0xffffffffffffffff
 795500: system.l2.tags: Tag of cacheblk entry is: 0xffffffffffffffff
 795500: system.l2.tags: Tag of cacheblk entry is: 0xffffffffffffffff
 795500: system.l2.tags: Tag of cacheblk entry is: 0xffffffffffffffff
 795500: system.l2.tags: Tag of cacheblk entry is: 0xffffffffffffffff
 795500: system.l2.tags: Tag of cacheblk entry is: 0xffffffffffffffff
 804500: system.l2.tags: Tag of cacheblk entry is: 0xffffffffffffffff
 804500: system.l2.tags: Tag of cacheblk entry is: 0xffffffffffffffff
 804500: system.l2.tags: Tag of cacheblk entry is: 0xffffffffffffffff
 804500: system.l2.tags: Tag of cacheblk entry is: 0xffffffffffffffff
 804500: system.l2.tags: Tag of cacheblk entry is: 0xffffffffffffffff
 804500: system.l2.tags: Tag of cacheblk entry is: 0xffffffffffffffff
 804500: system.l2.tags: Tag of cacheblk entry is: 0xffffffffffffffff
 804500: system.l2.tags: Tag of cacheblk entry is: 0xffffffffffffffff
 833000: system.l2.tags: Tag of cacheblk entry is: 0xffffffffffffffff
 833000: system.l2.tags: Tag of cacheblk entry is: 0xffffffffffffffff
 833000: system.l2.tags: Tag of cacheblk entry is: 0xffffffffffffffff
 833000: system.l2.tags: Tag of cacheblk entry is: 0xffffffffffffffff
 833000: system.l2.tags: Tag of cacheblk entry is: 0xffffffffffffffff
 833000: system.l2.tags: Tag of cacheblk entry is: 0xffffffffffffffff
 833000: system.l2.tags: Tag of cacheblk entry is: 0xffffffffffffffff
 833000: system.l2.tags: Tag of cacheblk entry is: 0xffffffffffffffff
 845500: system.l2.tags: Tag of cacheblk entry is: 0xffffffffffffffff
 845500: system.l2.tags: Tag of cacheblk entry is: 0xffffffffffffffff
 845500: system.l2.tags: Tag of cacheblk entry is: 0xffffffffffffffff
 845500: system.l2.tags: Tag of cacheblk entry is: 0xffffffffffffffff
 845500: system.l2.tags: Tag of cacheblk entry is: 0xffffffffffffffff
 845500: system.l2.tags: Tag of cacheblk entry is: 0xffffffffffffffff
 845500: system.l2.tags: Tag of cacheblk entry is: 0xffffffffffffffff
 845500: system.l2.tags: Tag of cacheblk entry is: 0xffffffffffffffff
 886500: system.l2.tags: Tag of cacheblk entry is: 0xffffffffffffffff
 886500: system.l2.tags: Tag of cacheblk entry is: 0xffffffffffffffff
 886500: system.l2.tags: Tag of cacheblk entry is: 0xffffffffffffffff
 886500: system.l2.tags: Tag of cacheblk entry is: 0xffffffffffffffff
 886500: system.l2.tags: Tag of cacheblk entry is: 0xffffffffffffffff
 886500: system.l2.tags: Tag of cacheblk entry is: 0xffffffffffffffff
 886500: system.l2.tags: Tag of cacheblk entry is: 0xffffffffffffffff
 886500: system.l2.tags: Tag of cacheblk entry is: 0xffffffffffffffff
 930000: system.l2.tags: Tag of cacheblk entry is: 0xffffffffffffffff
 930000: system.l2.tags: Tag of cacheblk entry is: 0xffffffffffffffff
 930000: system.l2.tags: Tag of cacheblk entry is: 0xffffffffffffffff
 930000: system.l2.tags: Tag of cacheblk entry is: 0xffffffffffffffff
 930000: system.l2.tags: Tag of cacheblk entry is: 0xffffffffffffffff
 930000: system.l2.tags: Tag of cacheblk entry is: 0xffffffffffffffff
 930000: system.l2.tags: Tag of cacheblk entry is: 0xffffffffffffffff
 930000: system.l2.tags: Tag of cacheblk entry is: 0xffffffffffffffff
 951500: system.l2.tags: Tag of cacheblk entry is: 0xffffffffffffffff
 951500: system.l2.tags: Tag of cacheblk entry is: 0xffffffffffffffff
 951500: system.l2.tags: Tag of cacheblk entry is: 0xffffffffffffffff
 951500: system.l2.tags: Tag of cacheblk entry is: 0xffffffffffffffff
 951500: system.l2.tags: Tag of cacheblk entry is: 0xffffffffffffffff
 951500: system.l2.tags: Tag of cacheblk entry is: 0xffffffffffffffff
 951500: system.l2.tags: Tag of cacheblk entry is: 0xffffffffffffffff
 951500: system.l2.tags: Tag of cacheblk entry is: 0xffffffffffffffff
 974000: system.l2.tags: Tag of cacheblk entry is: 0xffffffffffffffff
 974000: system.l2.tags: Tag of cacheblk entry is: 0xffffffffffffffff
 974000: system.l2.tags: Tag of cacheblk entry is: 0xffffffffffffffff
 974000: system.l2.tags: Tag of cacheblk entry is: 0xffffffffffffffff
 974000: system.l2.tags: Tag of cacheblk entry is: 0xffffffffffffffff
 974000: system.l2.tags: Tag of cacheblk entry is: 0xffffffffffffffff
 974000: system.l2.tags: Tag of cacheblk entry is: 0xffffffffffffffff
 974000: system.l2.tags: Tag of cacheblk entry is: 0xffffffffffffffff
 990000: system.l2.tags: Tag of cacheblk entry is: 0xffffffffffffffff
 990000: system.l2.tags: Tag of cacheblk entry is: 0xffffffffffffffff
 990000: system.l2.tags: Tag of cacheblk entry is: 0xffffffffffffffff
 990000: system.l2.tags: Tag of cacheblk entry is: 0xffffffffffffffff
 990000: system.l2.tags: Tag of cacheblk entry is: 0xffffffffffffffff
 990000: system.l2.tags: Tag of cacheblk entry is: 0xffffffffffffffff
 990000: system.l2.tags: Tag of cacheblk entry is: 0xffffffffffffffff
 990000: system.l2.tags: Tag of cacheblk entry is: 0xffffffffffffffff
 997000: system.l2.tags: Tag of cacheblk entry is: 0xffffffffffffffff
 997000: system.l2.tags: Tag of cacheblk entry is: 0xffffffffffffffff
 997000: system.l2.tags: Tag of cacheblk entry is: 0xffffffffffffffff
 997000: system.l2.tags: Tag of cacheblk entry is: 0xffffffffffffffff
 997000: system.l2.tags: Tag of cacheblk entry is: 0xffffffffffffffff
 997000: system.l2.tags: Tag of cacheblk entry is: 0xffffffffffffffff
 997000: system.l2.tags: Tag of cacheblk entry is: 0xffffffffffffffff
 997000: system.l2.tags: Tag of cacheblk entry is: 0xffffffffffffffff
1003500: system.l2.tags: Tag of cacheblk entry is: 0xffffffffffffffff
1003500: system.l2.tags: Tag of cacheblk entry is: 0xffffffffffffffff
1003500: system.l2.tags: Tag of cacheblk entry is: 0xffffffffffffffff
1003500: system.l2.tags: Tag of cacheblk entry is: 0xffffffffffffffff
1003500: system.l2.tags: Tag of cacheblk entry is: 0xffffffffffffffff
1003500: system.l2.tags: Tag of cacheblk entry is: 0xffffffffffffffff
1003500: system.l2.tags: Tag of cacheblk entry is: 0xffffffffffffffff
1003500: system.l2.tags: Tag of cacheblk entry is: 0xffffffffffffffff
1004500: system.l2.tags: Tag of cacheblk entry is: 0xffffffffffffffff
1004500: system.l2.tags: Tag of cacheblk entry is: 0xffffffffffffffff
1004500: system.l2.tags: Tag of cacheblk entry is: 0xffffffffffffffff
1004500: system.l2.tags: Tag of cacheblk entry is: 0xffffffffffffffff
1004500: system.l2.tags: Tag of cacheblk entry is: 0xffffffffffffffff
1004500: system.l2.tags: Tag of cacheblk entry is: 0xffffffffffffffff
1004500: system.l2.tags: Tag of cacheblk entry is: 0xffffffffffffffff
1004500: system.l2.tags: Tag of cacheblk entry is: 0xffffffffffffffff
1020000: system.l2.tags: Tag of cacheblk entry is: 0xffffffffffffffff
1020000: system.l2.tags: Tag of cacheblk entry is: 0xffffffffffffffff
1020000: system.l2.tags: Tag of cacheblk entry is: 0xffffffffffffffff
1020000: system.l2.tags: Tag of cacheblk entry is: 0xffffffffffffffff
1020000: system.l2.tags: Tag of cacheblk entry is: 0xffffffffffffffff
1020000: system.l2.tags: Tag of cacheblk entry is: 0xffffffffffffffff
1020000: system.l2.tags: Tag of cacheblk entry is: 0xffffffffffffffff
1020000: system.l2.tags: Tag of cacheblk entry is: 0xffffffffffffffff
1025500: system.l2.tags: Tag of cacheblk entry is: 0xffffffffffffffff
1025500: system.l2.tags: Tag of cacheblk entry is: 0xffffffffffffffff
1025500: system.l2.tags: Tag of cacheblk entry is: 0xffffffffffffffff
1025500: system.l2.tags: Tag of cacheblk entry is: 0xffffffffffffffff
1025500: system.l2.tags: Tag of cacheblk entry is: 0xffffffffffffffff
1025500: system.l2.tags: Tag of cacheblk entry is: 0xffffffffffffffff
1025500: system.l2.tags: Tag of cacheblk entry is: 0xffffffffffffffff
1025500: system.l2.tags: Tag of cacheblk entry is: 0xffffffffffffffff
1033000: system.l2.tags: Tag of cacheblk entry is: 0xffffffffffffffff
1033000: system.l2.tags: Tag of cacheblk entry is: 0xffffffffffffffff
1033000: system.l2.tags: Tag of cacheblk entry is: 0xffffffffffffffff
1033000: system.l2.tags: Tag of cacheblk entry is: 0xffffffffffffffff
1033000: system.l2.tags: Tag of cacheblk entry is: 0xffffffffffffffff
1033000: system.l2.tags: Tag of cacheblk entry is: 0xffffffffffffffff
1033000: system.l2.tags: Tag of cacheblk entry is: 0xffffffffffffffff
1033000: system.l2.tags: Tag of cacheblk entry is: 0xffffffffffffffff
1045000: system.l2.tags: Tag of cacheblk entry is: 0xffffffffffffffff
1045000: system.l2.tags: Tag of cacheblk entry is: 0xffffffffffffffff
1045000: system.l2.tags: Tag of cacheblk entry is: 0xffffffffffffffff
1045000: system.l2.tags: Tag of cacheblk entry is: 0xffffffffffffffff
1045000: system.l2.tags: Tag of cacheblk entry is: 0xffffffffffffffff
1045000: system.l2.tags: Tag of cacheblk entry is: 0xffffffffffffffff
1045000: system.l2.tags: Tag of cacheblk entry is: 0xffffffffffffffff
1045000: system.l2.tags: Tag of cacheblk entry is: 0xffffffffffffffff
1047500: system.l2.tags: Tag of cacheblk entry is: 0xffffffffffffffff
1047500: system.l2.tags: Tag of cacheblk entry is: 0xffffffffffffffff
1047500: system.l2.tags: Tag of cacheblk entry is: 0xffffffffffffffff
1047500: system.l2.tags: Tag of cacheblk entry is: 0xffffffffffffffff
1047500: system.l2.tags: Tag of cacheblk entry is: 0xffffffffffffffff
1047500: system.l2.tags: Tag of cacheblk entry is: 0xffffffffffffffff
1047500: system.l2.tags: Tag of cacheblk entry is: 0xffffffffffffffff
1047500: system.l2.tags: Tag of cacheblk entry is: 0xffffffffffffffff
1054500: system.l2.tags: Tag of cacheblk entry is: 0xffffffffffffffff
1054500: system.l2.tags: Tag of cacheblk entry is: 0xffffffffffffffff
1054500: system.l2.tags: Tag of cacheblk entry is: 0xffffffffffffffff
1054500: system.l2.tags: Tag of cacheblk entry is: 0xffffffffffffffff
1054500: system.l2.tags: Tag of cacheblk entry is: 0xffffffffffffffff
1054500: system.l2.tags: Tag of cacheblk entry is: 0xffffffffffffffff
1054500: system.l2.tags: Tag of cacheblk entry is: 0xffffffffffffffff
1054500: system.l2.tags: Tag of cacheblk entry is: 0xffffffffffffffff
1056000: system.l2.tags: Tag of cacheblk entry is: 0xffffffffffffffff
1056000: system.l2.tags: Tag of cacheblk entry is: 0xffffffffffffffff
1056000: system.l2.tags: Tag of cacheblk entry is: 0xffffffffffffffff
1056000: system.l2.tags: Tag of cacheblk entry is: 0xffffffffffffffff
1056000: system.l2.tags: Tag of cacheblk entry is: 0xffffffffffffffff
1056000: system.l2.tags: Tag of cacheblk entry is: 0xffffffffffffffff
1056000: system.l2.tags: Tag of cacheblk entry is: 0xffffffffffffffff
1056000: system.l2.tags: Tag of cacheblk entry is: 0xffffffffffffffff
1071500: system.l2.tags: Tag of cacheblk entry is: 0xffffffffffffffff
1071500: system.l2.tags: Tag of cacheblk entry is: 0xffffffffffffffff
1071500: system.l2.tags: Tag of cacheblk entry is: 0xffffffffffffffff
1071500: system.l2.tags: Tag of cacheblk entry is: 0xffffffffffffffff
1071500: system.l2.tags: Tag of cacheblk entry is: 0xffffffffffffffff
1071500: system.l2.tags: Tag of cacheblk entry is: 0xffffffffffffffff
1071500: system.l2.tags: Tag of cacheblk entry is: 0xffffffffffffffff
1071500: system.l2.tags: Tag of cacheblk entry is: 0xffffffffffffffff
1076500: system.l2.tags: Tag of cacheblk entry is: 0xffffffffffffffff
1076500: system.l2.tags: Tag of cacheblk entry is: 0xffffffffffffffff
1076500: system.l2.tags: Tag of cacheblk entry is: 0xffffffffffffffff
1076500: system.l2.tags: Tag of cacheblk entry is: 0xffffffffffffffff
1076500: system.l2.tags: Tag of cacheblk entry is: 0xffffffffffffffff
1076500: system.l2.tags: Tag of cacheblk entry is: 0xffffffffffffffff
1076500: system.l2.tags: Tag of cacheblk entry is: 0xffffffffffffffff
1076500: system.l2.tags: Tag of cacheblk entry is: 0xffffffffffffffff
1091500: system.l2.tags: Tag of cacheblk entry is: 0xffffffffffffffff
1091500: system.l2.tags: Tag of cacheblk entry is: 0xffffffffffffffff
1091500: system.l2.tags: Tag of cacheblk entry is: 0xffffffffffffffff
1091500: system.l2.tags: Tag of cacheblk entry is: 0xffffffffffffffff
1091500: system.l2.tags: Tag of cacheblk entry is: 0xffffffffffffffff
1091500: system.l2.tags: Tag of cacheblk entry is: 0xffffffffffffffff
1091500: system.l2.tags: Tag of cacheblk entry is: 0xffffffffffffffff
1091500: system.l2.tags: Tag of cacheblk entry is: 0xffffffffffffffff
1108500: system.l2.tags: Tag of cacheblk entry is: 0xffffffffffffffff
1108500: system.l2.tags: Tag of cacheblk entry is: 0xffffffffffffffff
1108500: system.l2.tags: Tag of cacheblk entry is: 0xffffffffffffffff
1108500: system.l2.tags: Tag of cacheblk entry is: 0xffffffffffffffff
1108500: system.l2.tags: Tag of cacheblk entry is: 0xffffffffffffffff
1108500: system.l2.tags: Tag of cacheblk entry is: 0xffffffffffffffff
1108500: system.l2.tags: Tag of cacheblk entry is: 0xffffffffffffffff
1108500: system.l2.tags: Tag of cacheblk entry is: 0xffffffffffffffff
1118500: system.l2.tags: Tag of cacheblk entry is: 0xffffffffffffffff
1118500: system.l2.tags: Tag of cacheblk entry is: 0xffffffffffffffff
1118500: system.l2.tags: Tag of cacheblk entry is: 0xffffffffffffffff
1118500: system.l2.tags: Tag of cacheblk entry is: 0xffffffffffffffff
1118500: system.l2.tags: Tag of cacheblk entry is: 0xffffffffffffffff
1118500: system.l2.tags: Tag of cacheblk entry is: 0xffffffffffffffff
1118500: system.l2.tags: Tag of cacheblk entry is: 0xffffffffffffffff
1118500: system.l2.tags: Tag of cacheblk entry is: 0xffffffffffffffff
1127500: system.l2.tags: Tag of cacheblk entry is: 0xffffffffffffffff
1127500: system.l2.tags: Tag of cacheblk entry is: 0xffffffffffffffff
1127500: system.l2.tags: Tag of cacheblk entry is: 0xffffffffffffffff
1127500: system.l2.tags: Tag of cacheblk entry is: 0xffffffffffffffff
1127500: system.l2.tags: Tag of cacheblk entry is: 0xffffffffffffffff
1127500: system.l2.tags: Tag of cacheblk entry is: 0xffffffffffffffff
1127500: system.l2.tags: Tag of cacheblk entry is: 0xffffffffffffffff
1127500: system.l2.tags: Tag of cacheblk entry is: 0xffffffffffffffff
1130000: system.l2.tags: Tag of cacheblk entry is: 0xffffffffffffffff
1130000: system.l2.tags: Tag of cacheblk entry is: 0xffffffffffffffff
1130000: system.l2.tags: Tag of cacheblk entry is: 0xffffffffffffffff
1130000: system.l2.tags: Tag of cacheblk entry is: 0xffffffffffffffff
1130000: system.l2.tags: Tag of cacheblk entry is: 0xffffffffffffffff
1130000: system.l2.tags: Tag of cacheblk entry is: 0xffffffffffffffff
1130000: system.l2.tags: Tag of cacheblk entry is: 0xffffffffffffffff
1130000: system.l2.tags: Tag of cacheblk entry is: 0xffffffffffffffff
1132500: system.l2.tags: Tag of cacheblk entry is: 0xffffffffffffffff
1132500: system.l2.tags: Tag of cacheblk entry is: 0xffffffffffffffff
1132500: system.l2.tags: Tag of cacheblk entry is: 0xffffffffffffffff
1132500: system.l2.tags: Tag of cacheblk entry is: 0xffffffffffffffff
1132500: system.l2.tags: Tag of cacheblk entry is: 0xffffffffffffffff
1132500: system.l2.tags: Tag of cacheblk entry is: 0xffffffffffffffff
1132500: system.l2.tags: Tag of cacheblk entry is: 0xffffffffffffffff
1132500: system.l2.tags: Tag of cacheblk entry is: 0xffffffffffffffff
1134500: system.l2.tags: Tag of cacheblk entry is: 0xffffffffffffffff
1134500: system.l2.tags: Tag of cacheblk entry is: 0xffffffffffffffff
1134500: system.l2.tags: Tag of cacheblk entry is: 0xffffffffffffffff
1134500: system.l2.tags: Tag of cacheblk entry is: 0xffffffffffffffff
1134500: system.l2.tags: Tag of cacheblk entry is: 0xffffffffffffffff
1134500: system.l2.tags: Tag of cacheblk entry is: 0xffffffffffffffff
1134500: system.l2.tags: Tag of cacheblk entry is: 0xffffffffffffffff
1134500: system.l2.tags: Tag of cacheblk entry is: 0xffffffffffffffff
1140000: system.l2.tags: Tag of cacheblk entry is: 0xffffffffffffffff
1140000: system.l2.tags: Tag of cacheblk entry is: 0xffffffffffffffff
1140000: system.l2.tags: Tag of cacheblk entry is: 0xffffffffffffffff
1140000: system.l2.tags: Tag of cacheblk entry is: 0xffffffffffffffff
1140000: system.l2.tags: Tag of cacheblk entry is: 0xffffffffffffffff
1140000: system.l2.tags: Tag of cacheblk entry is: 0xffffffffffffffff
1140000: system.l2.tags: Tag of cacheblk entry is: 0xffffffffffffffff
1140000: system.l2.tags: Tag of cacheblk entry is: 0xffffffffffffffff
1148500: system.l2.tags: Tag of cacheblk entry is: 0xffffffffffffffff
1148500: system.l2.tags: Tag of cacheblk entry is: 0xffffffffffffffff
1148500: system.l2.tags: Tag of cacheblk entry is: 0xffffffffffffffff
1148500: system.l2.tags: Tag of cacheblk entry is: 0xffffffffffffffff
1148500: system.l2.tags: Tag of cacheblk entry is: 0xffffffffffffffff
1148500: system.l2.tags: Tag of cacheblk entry is: 0xffffffffffffffff
1148500: system.l2.tags: Tag of cacheblk entry is: 0xffffffffffffffff
1148500: system.l2.tags: Tag of cacheblk entry is: 0xffffffffffffffff
1150500: system.l2.tags: Tag of cacheblk entry is: 0xffffffffffffffff
1150500: system.l2.tags: Tag of cacheblk entry is: 0xffffffffffffffff
1150500: system.l2.tags: Tag of cacheblk entry is: 0xffffffffffffffff
1150500: system.l2.tags: Tag of cacheblk entry is: 0xffffffffffffffff
1150500: system.l2.tags: Tag of cacheblk entry is: 0xffffffffffffffff
1150500: system.l2.tags: Tag of cacheblk entry is: 0xffffffffffffffff
1150500: system.l2.tags: Tag of cacheblk entry is: 0xffffffffffffffff
1150500: system.l2.tags: Tag of cacheblk entry is: 0xffffffffffffffff
1152000: system.l2.tags: Tag of cacheblk entry is: 0xffffffffffffffff
1152000: system.l2.tags: Tag of cacheblk entry is: 0xffffffffffffffff
1152000: system.l2.tags: Tag of cacheblk entry is: 0xffffffffffffffff
1152000: system.l2.tags: Tag of cacheblk entry is: 0xffffffffffffffff
1152000: system.l2.tags: Tag of cacheblk entry is: 0xffffffffffffffff
1152000: system.l2.tags: Tag of cacheblk entry is: 0xffffffffffffffff
1152000: system.l2.tags: Tag of cacheblk entry is: 0xffffffffffffffff
1152000: system.l2.tags: Tag of cacheblk entry is: 0xffffffffffffffff
1157500: system.l2.tags: Tag of cacheblk entry is: 0xffffffffffffffff
1157500: system.l2.tags: Tag of cacheblk entry is: 0xffffffffffffffff
1157500: system.l2.tags: Tag of cacheblk entry is: 0xffffffffffffffff
1157500: system.l2.tags: Tag of cacheblk entry is: 0xffffffffffffffff
1157500: system.l2.tags: Tag of cacheblk entry is: 0xffffffffffffffff
1157500: system.l2.tags: Tag of cacheblk entry is: 0xffffffffffffffff
1157500: system.l2.tags: Tag of cacheblk entry is: 0xffffffffffffffff
1157500: system.l2.tags: Tag of cacheblk entry is: 0xffffffffffffffff
1163000: system.l2.tags: Tag of cacheblk entry is: 0xffffffffffffffff
1163000: system.l2.tags: Tag of cacheblk entry is: 0xffffffffffffffff
1163000: system.l2.tags: Tag of cacheblk entry is: 0xffffffffffffffff
1163000: system.l2.tags: Tag of cacheblk entry is: 0xffffffffffffffff
1163000: system.l2.tags: Tag of cacheblk entry is: 0xffffffffffffffff
1163000: system.l2.tags: Tag of cacheblk entry is: 0xffffffffffffffff
1163000: system.l2.tags: Tag of cacheblk entry is: 0xffffffffffffffff
1163000: system.l2.tags: Tag of cacheblk entry is: 0xffffffffffffffff
1163000: system.l2.tags: Tag of cacheblk entry is: 0xffffffffffffffff
1163000: system.l2.tags: Tag of cacheblk entry is: 0xffffffffffffffff
1163000: system.l2.tags: Tag of cacheblk entry is: 0xffffffffffffffff
1163000: system.l2.tags: Tag of cacheblk entry is: 0xffffffffffffffff
1163000: system.l2.tags: Tag of cacheblk entry is: 0xffffffffffffffff
1163000: system.l2.tags: Tag of cacheblk entry is: 0xffffffffffffffff
1163000: system.l2.tags: Tag of cacheblk entry is: 0xffffffffffffffff
1163000: system.l2.tags: Tag of cacheblk entry is: 0xffffffffffffffff
1168500: system.l2.tags: Tag of cacheblk entry is: 0xffffffffffffffff
1168500: system.l2.tags: Tag of cacheblk entry is: 0xffffffffffffffff
1168500: system.l2.tags: Tag of cacheblk entry is: 0xffffffffffffffff
1168500: system.l2.tags: Tag of cacheblk entry is: 0xffffffffffffffff
1168500: system.l2.tags: Tag of cacheblk entry is: 0xffffffffffffffff
1168500: system.l2.tags: Tag of cacheblk entry is: 0xffffffffffffffff
1168500: system.l2.tags: Tag of cacheblk entry is: 0xffffffffffffffff
1168500: system.l2.tags: Tag of cacheblk entry is: 0xffffffffffffffff
1172000: system.l2.tags: Tag of cacheblk entry is: 0xffffffffffffffff
1172000: system.l2.tags: Tag of cacheblk entry is: 0xffffffffffffffff
1172000: system.l2.tags: Tag of cacheblk entry is: 0xffffffffffffffff
1172000: system.l2.tags: Tag of cacheblk entry is: 0xffffffffffffffff
1172000: system.l2.tags: Tag of cacheblk entry is: 0xffffffffffffffff
1172000: system.l2.tags: Tag of cacheblk entry is: 0xffffffffffffffff
1172000: system.l2.tags: Tag of cacheblk entry is: 0xffffffffffffffff
1172000: system.l2.tags: Tag of cacheblk entry is: 0xffffffffffffffff
1177000: system.l2.tags: Tag of cacheblk entry is: 0xffffffffffffffff
1177000: system.l2.tags: Tag of cacheblk entry is: 0xffffffffffffffff
1177000: system.l2.tags: Tag of cacheblk entry is: 0xffffffffffffffff
1177000: system.l2.tags: Tag of cacheblk entry is: 0xffffffffffffffff
1177000: system.l2.tags: Tag of cacheblk entry is: 0xffffffffffffffff
1177000: system.l2.tags: Tag of cacheblk entry is: 0xffffffffffffffff
1177000: system.l2.tags: Tag of cacheblk entry is: 0xffffffffffffffff
1177000: system.l2.tags: Tag of cacheblk entry is: 0xffffffffffffffff
1180500: system.l2.tags: Tag of cacheblk entry is: 0xffffffffffffffff
1180500: system.l2.tags: Tag of cacheblk entry is: 0xffffffffffffffff
1180500: system.l2.tags: Tag of cacheblk entry is: 0xffffffffffffffff
1180500: system.l2.tags: Tag of cacheblk entry is: 0xffffffffffffffff
1180500: system.l2.tags: Tag of cacheblk entry is: 0xffffffffffffffff
1180500: system.l2.tags: Tag of cacheblk entry is: 0xffffffffffffffff
1180500: system.l2.tags: Tag of cacheblk entry is: 0xffffffffffffffff
1180500: system.l2.tags: Tag of cacheblk entry is: 0xffffffffffffffff
1183500: system.l2.tags: Tag of cacheblk entry is: 0xffffffffffffffff
1183500: system.l2.tags: Tag of cacheblk entry is: 0xffffffffffffffff
1183500: system.l2.tags: Tag of cacheblk entry is: 0xffffffffffffffff
1183500: system.l2.tags: Tag of cacheblk entry is: 0xffffffffffffffff
1183500: system.l2.tags: Tag of cacheblk entry is: 0xffffffffffffffff
1183500: system.l2.tags: Tag of cacheblk entry is: 0xffffffffffffffff
1183500: system.l2.tags: Tag of cacheblk entry is: 0xffffffffffffffff
1183500: system.l2.tags: Tag of cacheblk entry is: 0xffffffffffffffff
1187500: system.l2.tags: Tag of cacheblk entry is: 0xffffffffffffffff
1187500: system.l2.tags: Tag of cacheblk entry is: 0xffffffffffffffff
1187500: system.l2.tags: Tag of cacheblk entry is: 0xffffffffffffffff
1187500: system.l2.tags: Tag of cacheblk entry is: 0xffffffffffffffff
1187500: system.l2.tags: Tag of cacheblk entry is: 0xffffffffffffffff
1187500: system.l2.tags: Tag of cacheblk entry is: 0xffffffffffffffff
1187500: system.l2.tags: Tag of cacheblk entry is: 0xffffffffffffffff
1187500: system.l2.tags: Tag of cacheblk entry is: 0xffffffffffffffff
1189500: system.l2.tags: Tag of cacheblk entry is: 0xffffffffffffffff
1189500: system.l2.tags: Tag of cacheblk entry is: 0xffffffffffffffff
1189500: system.l2.tags: Tag of cacheblk entry is: 0xffffffffffffffff
1189500: system.l2.tags: Tag of cacheblk entry is: 0xffffffffffffffff
1189500: system.l2.tags: Tag of cacheblk entry is: 0xffffffffffffffff
1189500: system.l2.tags: Tag of cacheblk entry is: 0xffffffffffffffff
1189500: system.l2.tags: Tag of cacheblk entry is: 0xffffffffffffffff
1189500: system.l2.tags: Tag of cacheblk entry is: 0xffffffffffffffff
1190000: system.l2.tags: Tag of cacheblk entry is: 0xffffffffffffffff
1190000: system.l2.tags: Tag of cacheblk entry is: 0xffffffffffffffff
1190000: system.l2.tags: Tag of cacheblk entry is: 0xffffffffffffffff
1190000: system.l2.tags: Tag of cacheblk entry is: 0xffffffffffffffff
1190000: system.l2.tags: Tag of cacheblk entry is: 0xffffffffffffffff
1190000: system.l2.tags: Tag of cacheblk entry is: 0xffffffffffffffff
1190000: system.l2.tags: Tag of cacheblk entry is: 0xffffffffffffffff
1190000: system.l2.tags: Tag of cacheblk entry is: 0xffffffffffffffff
1197000: system.l2.tags: Tag of cacheblk entry is: 0xffffffffffffffff
1197000: system.l2.tags: Tag of cacheblk entry is: 0xffffffffffffffff
1197000: system.l2.tags: Tag of cacheblk entry is: 0xffffffffffffffff
1197000: system.l2.tags: Tag of cacheblk entry is: 0xffffffffffffffff
1197000: system.l2.tags: Tag of cacheblk entry is: 0xffffffffffffffff
1197000: system.l2.tags: Tag of cacheblk entry is: 0xffffffffffffffff
1197000: system.l2.tags: Tag of cacheblk entry is: 0xffffffffffffffff
1197000: system.l2.tags: Tag of cacheblk entry is: 0xffffffffffffffff
1201000: system.l2.tags: Tag of cacheblk entry is: 0xffffffffffffffff
1201000: system.l2.tags: Tag of cacheblk entry is: 0xffffffffffffffff
1201000: system.l2.tags: Tag of cacheblk entry is: 0xffffffffffffffff
1201000: system.l2.tags: Tag of cacheblk entry is: 0xffffffffffffffff
1201000: system.l2.tags: Tag of cacheblk entry is: 0xffffffffffffffff
1201000: system.l2.tags: Tag of cacheblk entry is: 0xffffffffffffffff
1201000: system.l2.tags: Tag of cacheblk entry is: 0xffffffffffffffff
1201000: system.l2.tags: Tag of cacheblk entry is: 0xffffffffffffffff
1211000: system.l2.tags: Tag of cacheblk entry is: 0xffffffffffffffff
1211000: system.l2.tags: Tag of cacheblk entry is: 0xffffffffffffffff
1211000: system.l2.tags: Tag of cacheblk entry is: 0xffffffffffffffff
1211000: system.l2.tags: Tag of cacheblk entry is: 0xffffffffffffffff
1211000: system.l2.tags: Tag of cacheblk entry is: 0xffffffffffffffff
1211000: system.l2.tags: Tag of cacheblk entry is: 0xffffffffffffffff
1211000: system.l2.tags: Tag of cacheblk entry is: 0xffffffffffffffff
1211000: system.l2.tags: Tag of cacheblk entry is: 0xffffffffffffffff
1212500: system.l2.tags: Tag of cacheblk entry is: 0xffffffffffffffff
1212500: system.l2.tags: Tag of cacheblk entry is: 0xffffffffffffffff
1212500: system.l2.tags: Tag of cacheblk entry is: 0xffffffffffffffff
1212500: system.l2.tags: Tag of cacheblk entry is: 0xffffffffffffffff
1212500: system.l2.tags: Tag of cacheblk entry is: 0xffffffffffffffff
1212500: system.l2.tags: Tag of cacheblk entry is: 0xffffffffffffffff
1212500: system.l2.tags: Tag of cacheblk entry is: 0xffffffffffffffff
1212500: system.l2.tags: Tag of cacheblk entry is: 0xffffffffffffffff
1218500: system.l2.tags: Tag of cacheblk entry is: 0xffffffffffffffff
1218500: system.l2.tags: Tag of cacheblk entry is: 0xffffffffffffffff
1218500: system.l2.tags: Tag of cacheblk entry is: 0xffffffffffffffff
1218500: system.l2.tags: Tag of cacheblk entry is: 0xffffffffffffffff
1218500: system.l2.tags: Tag of cacheblk entry is: 0xffffffffffffffff
1218500: system.l2.tags: Tag of cacheblk entry is: 0xffffffffffffffff
1218500: system.l2.tags: Tag of cacheblk entry is: 0xffffffffffffffff
1218500: system.l2.tags: Tag of cacheblk entry is: 0xffffffffffffffff
1221500: system.l2.tags: Tag of cacheblk entry is: 0xffffffffffffffff
1221500: system.l2.tags: Tag of cacheblk entry is: 0xffffffffffffffff
1221500: system.l2.tags: Tag of cacheblk entry is: 0xffffffffffffffff
1221500: system.l2.tags: Tag of cacheblk entry is: 0xffffffffffffffff
1221500: system.l2.tags: Tag of cacheblk entry is: 0xffffffffffffffff
1221500: system.l2.tags: Tag of cacheblk entry is: 0xffffffffffffffff
1221500: system.l2.tags: Tag of cacheblk entry is: 0xffffffffffffffff
1221500: system.l2.tags: Tag of cacheblk entry is: 0xffffffffffffffff
1227500: system.l2.tags: Tag of cacheblk entry is: 0xffffffffffffffff
1227500: system.l2.tags: Tag of cacheblk entry is: 0xffffffffffffffff
1227500: system.l2.tags: Tag of cacheblk entry is: 0xffffffffffffffff
1227500: system.l2.tags: Tag of cacheblk entry is: 0xffffffffffffffff
1227500: system.l2.tags: Tag of cacheblk entry is: 0xffffffffffffffff
1227500: system.l2.tags: Tag of cacheblk entry is: 0xffffffffffffffff
1227500: system.l2.tags: Tag of cacheblk entry is: 0xffffffffffffffff
1227500: system.l2.tags: Tag of cacheblk entry is: 0xffffffffffffffff
1242500: system.l2.tags: Tag of cacheblk entry is: 0xffffffffffffffff
1242500: system.l2.tags: Tag of cacheblk entry is: 0xffffffffffffffff
1242500: system.l2.tags: Tag of cacheblk entry is: 0xffffffffffffffff
1242500: system.l2.tags: Tag of cacheblk entry is: 0xffffffffffffffff
1242500: system.l2.tags: Tag of cacheblk entry is: 0xffffffffffffffff
1242500: system.l2.tags: Tag of cacheblk entry is: 0xffffffffffffffff
1242500: system.l2.tags: Tag of cacheblk entry is: 0xffffffffffffffff
1242500: system.l2.tags: Tag of cacheblk entry is: 0xffffffffffffffff
1244000: system.l2.tags: Tag of cacheblk entry is: 0xffffffffffffffff
1244000: system.l2.tags: Tag of cacheblk entry is: 0xffffffffffffffff
1244000: system.l2.tags: Tag of cacheblk entry is: 0xffffffffffffffff
1244000: system.l2.tags: Tag of cacheblk entry is: 0xffffffffffffffff
1244000: system.l2.tags: Tag of cacheblk entry is: 0xffffffffffffffff
1244000: system.l2.tags: Tag of cacheblk entry is: 0xffffffffffffffff
1244000: system.l2.tags: Tag of cacheblk entry is: 0xffffffffffffffff
1244000: system.l2.tags: Tag of cacheblk entry is: 0xffffffffffffffff
1252000: system.l2.tags: Tag of cacheblk entry is: 0xffffffffffffffff
1252000: system.l2.tags: Tag of cacheblk entry is: 0xffffffffffffffff
1252000: system.l2.tags: Tag of cacheblk entry is: 0xffffffffffffffff
1252000: system.l2.tags: Tag of cacheblk entry is: 0xffffffffffffffff
1252000: system.l2.tags: Tag of cacheblk entry is: 0xffffffffffffffff
1252000: system.l2.tags: Tag of cacheblk entry is: 0xffffffffffffffff
1252000: system.l2.tags: Tag of cacheblk entry is: 0xffffffffffffffff
1252000: system.l2.tags: Tag of cacheblk entry is: 0xffffffffffffffff
1257500: system.l2.tags: Tag of cacheblk entry is: 0xffffffffffffffff
1257500: system.l2.tags: Tag of cacheblk entry is: 0xffffffffffffffff
1257500: system.l2.tags: Tag of cacheblk entry is: 0xffffffffffffffff
1257500: system.l2.tags: Tag of cacheblk entry is: 0xffffffffffffffff
1257500: system.l2.tags: Tag of cacheblk entry is: 0xffffffffffffffff
1257500: system.l2.tags: Tag of cacheblk entry is: 0xffffffffffffffff
1257500: system.l2.tags: Tag of cacheblk entry is: 0xffffffffffffffff
1257500: system.l2.tags: Tag of cacheblk entry is: 0xffffffffffffffff
1262500: system.l2.tags: Tag of cacheblk entry is: 0xffffffffffffffff
1262500: system.l2.tags: Tag of cacheblk entry is: 0xffffffffffffffff
1262500: system.l2.tags: Tag of cacheblk entry is: 0xffffffffffffffff
1262500: system.l2.tags: Tag of cacheblk entry is: 0xffffffffffffffff
1262500: system.l2.tags: Tag of cacheblk entry is: 0xffffffffffffffff
1262500: system.l2.tags: Tag of cacheblk entry is: 0xffffffffffffffff
1262500: system.l2.tags: Tag of cacheblk entry is: 0xffffffffffffffff
1262500: system.l2.tags: Tag of cacheblk entry is: 0xffffffffffffffff
1265000: system.l2.tags: Tag of cacheblk entry is: 0xffffffffffffffff
1265000: system.l2.tags: Tag of cacheblk entry is: 0xffffffffffffffff
1265000: system.l2.tags: Tag of cacheblk entry is: 0xffffffffffffffff
1265000: system.l2.tags: Tag of cacheblk entry is: 0xffffffffffffffff
1265000: system.l2.tags: Tag of cacheblk entry is: 0xffffffffffffffff
1265000: system.l2.tags: Tag of cacheblk entry is: 0xffffffffffffffff
1265000: system.l2.tags: Tag of cacheblk entry is: 0xffffffffffffffff
1265000: system.l2.tags: Tag of cacheblk entry is: 0xffffffffffffffff
1282500: system.l2.tags: Tag of cacheblk entry is: 0xffffffffffffffff
1282500: system.l2.tags: Tag of cacheblk entry is: 0xffffffffffffffff
1282500: system.l2.tags: Tag of cacheblk entry is: 0xffffffffffffffff
1282500: system.l2.tags: Tag of cacheblk entry is: 0xffffffffffffffff
1282500: system.l2.tags: Tag of cacheblk entry is: 0xffffffffffffffff
1282500: system.l2.tags: Tag of cacheblk entry is: 0xffffffffffffffff
1282500: system.l2.tags: Tag of cacheblk entry is: 0xffffffffffffffff
1282500: system.l2.tags: Tag of cacheblk entry is: 0xffffffffffffffff
1294000: system.l2.tags: Tag of cacheblk entry is: 0xffffffffffffffff
1294000: system.l2.tags: Tag of cacheblk entry is: 0xffffffffffffffff
1294000: system.l2.tags: Tag of cacheblk entry is: 0xffffffffffffffff
1294000: system.l2.tags: Tag of cacheblk entry is: 0xffffffffffffffff
1294000: system.l2.tags: Tag of cacheblk entry is: 0xffffffffffffffff
1294000: system.l2.tags: Tag of cacheblk entry is: 0xffffffffffffffff
1294000: system.l2.tags: Tag of cacheblk entry is: 0xffffffffffffffff
1294000: system.l2.tags: Tag of cacheblk entry is: 0xffffffffffffffff
1298500: system.l2.tags: Tag of cacheblk entry is: 0xffffffffffffffff
1298500: system.l2.tags: Tag of cacheblk entry is: 0xffffffffffffffff
1298500: system.l2.tags: Tag of cacheblk entry is: 0xffffffffffffffff
1298500: system.l2.tags: Tag of cacheblk entry is: 0xffffffffffffffff
1298500: system.l2.tags: Tag of cacheblk entry is: 0xffffffffffffffff
1298500: system.l2.tags: Tag of cacheblk entry is: 0xffffffffffffffff
1298500: system.l2.tags: Tag of cacheblk entry is: 0xffffffffffffffff
1298500: system.l2.tags: Tag of cacheblk entry is: 0xffffffffffffffff
1300000: system.l2.tags: Tag of cacheblk entry is: 0xffffffffffffffff
1300000: system.l2.tags: Tag of cacheblk entry is: 0xffffffffffffffff
1300000: system.l2.tags: Tag of cacheblk entry is: 0xffffffffffffffff
1300000: system.l2.tags: Tag of cacheblk entry is: 0xffffffffffffffff
1300000: system.l2.tags: Tag of cacheblk entry is: 0xffffffffffffffff
1300000: system.l2.tags: Tag of cacheblk entry is: 0xffffffffffffffff
1300000: system.l2.tags: Tag of cacheblk entry is: 0xffffffffffffffff
1300000: system.l2.tags: Tag of cacheblk entry is: 0xffffffffffffffff
1302500: system.l2.tags: Tag of cacheblk entry is: 0xffffffffffffffff
1302500: system.l2.tags: Tag of cacheblk entry is: 0xffffffffffffffff
1302500: system.l2.tags: Tag of cacheblk entry is: 0xffffffffffffffff
[...]
130894000: system.l2.tags: Tag of cacheblk entry is: 0x2
130894000: system.l2.tags: Tag of cacheblk entry is: 0xffffffffffffffff
130894000: system.l2.tags: Tag of cacheblk entry is: 0xffffffffffffffff
130894000: system.l2.tags: Tag of cacheblk entry is: 0xffffffffffffffff
130894000: system.l2.tags: Tag of cacheblk entry is: 0xffffffffffffffff
130894000: system.l2.tags: Tag of cacheblk entry is: 0xffffffffffffffff
130894000: system.l2.tags: Tag of cacheblk entry is: 0xffffffffffffffff
130894000: system.l2.tags: Tag of cacheblk entry is: 0xffffffffffffffff
130918000: system.l2.tags: Tag of cacheblk entry is: 0x1
130918000: system.l2.tags: Tag of cacheblk entry is: 0xffffffffffffffff
130918000: system.l2.tags: Tag of cacheblk entry is: 0xffffffffffffffff
130918000: system.l2.tags: Tag of cacheblk entry is: 0xffffffffffffffff
130918000: system.l2.tags: Tag of cacheblk entry is: 0xffffffffffffffff
130918000: system.l2.tags: Tag of cacheblk entry is: 0xffffffffffffffff
130918000: system.l2.tags: Tag of cacheblk entry is: 0xffffffffffffffff
130918000: system.l2.tags: Tag of cacheblk entry is: 0xffffffffffffffff
130935000: system.l2.tags: Tag of cacheblk entry is: 0x1
130935000: system.l2.tags: Tag of cacheblk entry is: 0xffffffffffffffff
130935000: system.l2.tags: Tag of cacheblk entry is: 0xffffffffffffffff
130935000: system.l2.tags: Tag of cacheblk entry is: 0xffffffffffffffff
130935000: system.l2.tags: Tag of cacheblk entry is: 0xffffffffffffffff
130935000: system.l2.tags: Tag of cacheblk entry is: 0xffffffffffffffff
130935000: system.l2.tags: Tag of cacheblk entry is: 0xffffffffffffffff
130935000: system.l2.tags: Tag of cacheblk entry is: 0xffffffffffffffff
130959000: system.l2.tags: Tag of cacheblk entry is: 0xffffffffffffffff
130959000: system.l2.tags: Tag of cacheblk entry is: 0x1
130959000: system.l2.tags: Tag of cacheblk entry is: 0xffffffffffffffff
130959000: system.l2.tags: Tag of cacheblk entry is: 0xffffffffffffffff
130959000: system.l2.tags: Tag of cacheblk entry is: 0xffffffffffffffff
130959000: system.l2.tags: Tag of cacheblk entry is: 0xffffffffffffffff
130959000: system.l2.tags: Tag of cacheblk entry is: 0xffffffffffffffff
130959000: system.l2.tags: Tag of cacheblk entry is: 0xffffffffffffffff
130983000: system.l2.tags: Tag of cacheblk entry is: 0xffffffffffffffff
130983000: system.l2.tags: Tag of cacheblk entry is: 0xffffffffffffffff
130983000: system.l2.tags: Tag of cacheblk entry is: 0xffffffffffffffff
130983000: system.l2.tags: Tag of cacheblk entry is: 0xffffffffffffffff
130983000: system.l2.tags: Tag of cacheblk entry is: 0xffffffffffffffff
130983000: system.l2.tags: Tag of cacheblk entry is: 0xffffffffffffffff
130983000: system.l2.tags: Tag of cacheblk entry is: 0xffffffffffffffff
130983000: system.l2.tags: Tag of cacheblk entry is: 0xffffffffffffffff
130999500: system.l2.tags: Tag of cacheblk entry is: 0x1
130999500: system.l2.tags: Tag of cacheblk entry is: 0xffffffffffffffff
130999500: system.l2.tags: Tag of cacheblk entry is: 0xffffffffffffffff
130999500: system.l2.tags: Tag of cacheblk entry is: 0xffffffffffffffff
130999500: system.l2.tags: Tag of cacheblk entry is: 0xffffffffffffffff
130999500: system.l2.tags: Tag of cacheblk entry is: 0xffffffffffffffff
130999500: system.l2.tags: Tag of cacheblk entry is: 0xffffffffffffffff
130999500: system.l2.tags: Tag of cacheblk entry is: 0xffffffffffffffff
131023500: system.l2.tags: Tag of cacheblk entry is: 0xffffffffffffffff
131023500: system.l2.tags: Tag of cacheblk entry is: 0xffffffffffffffff
131023500: system.l2.tags: Tag of cacheblk entry is: 0xffffffffffffffff
131023500: system.l2.tags: Tag of cacheblk entry is: 0xffffffffffffffff
131023500: system.l2.tags: Tag of cacheblk entry is: 0xffffffffffffffff
131023500: system.l2.tags: Tag of cacheblk entry is: 0xffffffffffffffff
131023500: system.l2.tags: Tag of cacheblk entry is: 0xffffffffffffffff
131023500: system.l2.tags: Tag of cacheblk entry is: 0xffffffffffffffff
131047500: system.l2.tags: Tag of cacheblk entry is: 0xffffffffffffffff
131047500: system.l2.tags: Tag of cacheblk entry is: 0xffffffffffffffff
131047500: system.l2.tags: Tag of cacheblk entry is: 0xffffffffffffffff
131047500: system.l2.tags: Tag of cacheblk entry is: 0xffffffffffffffff
131047500: system.l2.tags: Tag of cacheblk entry is: 0xffffffffffffffff
131047500: system.l2.tags: Tag of cacheblk entry is: 0xffffffffffffffff
131047500: system.l2.tags: Tag of cacheblk entry is: 0xffffffffffffffff
131047500: system.l2.tags: Tag of cacheblk entry is: 0xffffffffffffffff
131515500: system.l2.tags: Tag of cacheblk entry is: 0xffffffffffffffff
131515500: system.l2.tags: Tag of cacheblk entry is: 0xffffffffffffffff
131515500: system.l2.tags: Tag of cacheblk entry is: 0xffffffffffffffff
131515500: system.l2.tags: Tag of cacheblk entry is: 0xffffffffffffffff
131515500: system.l2.tags: Tag of cacheblk entry is: 0xffffffffffffffff
131515500: system.l2.tags: Tag of cacheblk entry is: 0xffffffffffffffff
131515500: system.l2.tags: Tag of cacheblk entry is: 0xffffffffffffffff
131515500: system.l2.tags: Tag of cacheblk entry is: 0xffffffffffffffff
131527000: system.l2.tags: Tag of cacheblk entry is: 0xffffffffffffffff
131527000: system.l2.tags: Tag of cacheblk entry is: 0xffffffffffffffff
131527000: system.l2.tags: Tag of cacheblk entry is: 0xffffffffffffffff
131527000: system.l2.tags: Tag of cacheblk entry is: 0xffffffffffffffff
131527000: system.l2.tags: Tag of cacheblk entry is: 0xffffffffffffffff
131527000: system.l2.tags: Tag of cacheblk entry is: 0xffffffffffffffff
131527000: system.l2.tags: Tag of cacheblk entry is: 0xffffffffffffffff
131527000: system.l2.tags: Tag of cacheblk entry is: 0xffffffffffffffff
131578000: system.l2.tags: Tag of cacheblk entry is: 0xffffffffffffffff
131578000: system.l2.tags: Tag of cacheblk entry is: 0xffffffffffffffff
131578000: system.l2.tags: Tag of cacheblk entry is: 0xffffffffffffffff
131578000: system.l2.tags: Tag of cacheblk entry is: 0xffffffffffffffff
131578000: system.l2.tags: Tag of cacheblk entry is: 0xffffffffffffffff
131578000: system.l2.tags: Tag of cacheblk entry is: 0xffffffffffffffff
131578000: system.l2.tags: Tag of cacheblk entry is: 0xffffffffffffffff
131578000: system.l2.tags: Tag of cacheblk entry is: 0xffffffffffffffff
131631500: system.l2.tags: Tag of cacheblk entry is: 0xffffffffffffffff
131631500: system.l2.tags: Tag of cacheblk entry is: 0xffffffffffffffff
131631500: system.l2.tags: Tag of cacheblk entry is: 0xffffffffffffffff
131631500: system.l2.tags: Tag of cacheblk entry is: 0xffffffffffffffff
131631500: system.l2.tags: Tag of cacheblk entry is: 0xffffffffffffffff
131631500: system.l2.tags: Tag of cacheblk entry is: 0xffffffffffffffff
131631500: system.l2.tags: Tag of cacheblk entry is: 0xffffffffffffffff
131631500: system.l2.tags: Tag of cacheblk entry is: 0xffffffffffffffff
132120000: system.l2.tags: Tag of cacheblk entry is: 0xffffffffffffffff
132120000: system.l2.tags: Tag of cacheblk entry is: 0xffffffffffffffff
132120000: system.l2.tags: Tag of cacheblk entry is: 0xffffffffffffffff
132120000: system.l2.tags: Tag of cacheblk entry is: 0xffffffffffffffff
132120000: system.l2.tags: Tag of cacheblk entry is: 0xffffffffffffffff
132120000: system.l2.tags: Tag of cacheblk entry is: 0xffffffffffffffff
132120000: system.l2.tags: Tag of cacheblk entry is: 0xffffffffffffffff
132120000: system.l2.tags: Tag of cacheblk entry is: 0xffffffffffffffff
132144500: system.l2.tags: Tag of cacheblk entry is: 0xffffffffffffffff
132144500: system.l2.tags: Tag of cacheblk entry is: 0x1
132144500: system.l2.tags: Tag of cacheblk entry is: 0xffffffffffffffff
132144500: system.l2.tags: Tag of cacheblk entry is: 0xffffffffffffffff
132144500: system.l2.tags: Tag of cacheblk entry is: 0xffffffffffffffff
132144500: system.l2.tags: Tag of cacheblk entry is: 0xffffffffffffffff
132144500: system.l2.tags: Tag of cacheblk entry is: 0xffffffffffffffff
132144500: system.l2.tags: Tag of cacheblk entry is: 0xffffffffffffffff
132168500: system.l2.tags: Tag of cacheblk entry is: 0xffffffffffffffff
132168500: system.l2.tags: Tag of cacheblk entry is: 0xffffffffffffffff
132168500: system.l2.tags: Tag of cacheblk entry is: 0xffffffffffffffff
132168500: system.l2.tags: Tag of cacheblk entry is: 0xffffffffffffffff
132168500: system.l2.tags: Tag of cacheblk entry is: 0xffffffffffffffff
132168500: system.l2.tags: Tag of cacheblk entry is: 0xffffffffffffffff
132168500: system.l2.tags: Tag of cacheblk entry is: 0xffffffffffffffff
132168500: system.l2.tags: Tag of cacheblk entry is: 0xffffffffffffffff
132185000: system.l2.tags: Tag of cacheblk entry is: 0xffffffffffffffff
132185000: system.l2.tags: Tag of cacheblk entry is: 0xffffffffffffffff
132185000: system.l2.tags: Tag of cacheblk entry is: 0xffffffffffffffff
132185000: system.l2.tags: Tag of cacheblk entry is: 0xffffffffffffffff
132185000: system.l2.tags: Tag of cacheblk entry is: 0xffffffffffffffff
132185000: system.l2.tags: Tag of cacheblk entry is: 0xffffffffffffffff
132185000: system.l2.tags: Tag of cacheblk entry is: 0xffffffffffffffff
132185000: system.l2.tags: Tag of cacheblk entry is: 0xffffffffffffffff
132209000: system.l2.tags: Tag of cacheblk entry is: 0x1
132209000: system.l2.tags: Tag of cacheblk entry is: 0xffffffffffffffff
132209000: system.l2.tags: Tag of cacheblk entry is: 0xffffffffffffffff
132209000: system.l2.tags: Tag of cacheblk entry is: 0xffffffffffffffff
132209000: system.l2.tags: Tag of cacheblk entry is: 0xffffffffffffffff
132209000: system.l2.tags: Tag of cacheblk entry is: 0xffffffffffffffff
132209000: system.l2.tags: Tag of cacheblk entry is: 0xffffffffffffffff
132209000: system.l2.tags: Tag of cacheblk entry is: 0xffffffffffffffff
132395500: system.l2.tags: Tag of cacheblk entry is: 0xffffffffffffffff
132395500: system.l2.tags: Tag of cacheblk entry is: 0xffffffffffffffff
132395500: system.l2.tags: Tag of cacheblk entry is: 0xffffffffffffffff
132395500: system.l2.tags: Tag of cacheblk entry is: 0xffffffffffffffff
132395500: system.l2.tags: Tag of cacheblk entry is: 0xffffffffffffffff
132395500: system.l2.tags: Tag of cacheblk entry is: 0xffffffffffffffff
132395500: system.l2.tags: Tag of cacheblk entry is: 0xffffffffffffffff
132395500: system.l2.tags: Tag of cacheblk entry is: 0xffffffffffffffff
132418000: system.l2.tags: Tag of cacheblk entry is: 0xffffffffffffffff
132418000: system.l2.tags: Tag of cacheblk entry is: 0xffffffffffffffff
132418000: system.l2.tags: Tag of cacheblk entry is: 0xffffffffffffffff
132418000: system.l2.tags: Tag of cacheblk entry is: 0xffffffffffffffff
132418000: system.l2.tags: Tag of cacheblk entry is: 0xffffffffffffffff
132418000: system.l2.tags: Tag of cacheblk entry is: 0xffffffffffffffff
132418000: system.l2.tags: Tag of cacheblk entry is: 0xffffffffffffffff
132418000: system.l2.tags: Tag of cacheblk entry is: 0xffffffffffffffff
132424000: system.l2.tags: Tag of cacheblk entry is: 0xffffffffffffffff
132424000: system.l2.tags: Tag of cacheblk entry is: 0xffffffffffffffff
132424000: system.l2.tags: Tag of cacheblk entry is: 0xffffffffffffffff
132424000: system.l2.tags: Tag of cacheblk entry is: 0xffffffffffffffff
132424000: system.l2.tags: Tag of cacheblk entry is: 0xffffffffffffffff
132424000: system.l2.tags: Tag of cacheblk entry is: 0xffffffffffffffff
132424000: system.l2.tags: Tag of cacheblk entry is: 0xffffffffffffffff
132424000: system.l2.tags: Tag of cacheblk entry is: 0xffffffffffffffff
132432500: system.l2.tags: Tag of cacheblk entry is: 0xffffffffffffffff
132432500: system.l2.tags: Tag of cacheblk entry is: 0xffffffffffffffff
132432500: system.l2.tags: Tag of cacheblk entry is: 0xffffffffffffffff
132432500: system.l2.tags: Tag of cacheblk entry is: 0xffffffffffffffff
132432500: system.l2.tags: Tag of cacheblk entry is: 0xffffffffffffffff
132432500: system.l2.tags: Tag of cacheblk entry is: 0xffffffffffffffff
132432500: system.l2.tags: Tag of cacheblk entry is: 0xffffffffffffffff
132432500: system.l2.tags: Tag of cacheblk entry is: 0xffffffffffffffff
132459000: system.l2.tags: Tag of cacheblk entry is: 0xffffffffffffffff
132459000: system.l2.tags: Tag of cacheblk entry is: 0xffffffffffffffff
132459000: system.l2.tags: Tag of cacheblk entry is: 0xffffffffffffffff
132459000: system.l2.tags: Tag of cacheblk entry is: 0xffffffffffffffff
132459000: system.l2.tags: Tag of cacheblk entry is: 0xffffffffffffffff
132459000: system.l2.tags: Tag of cacheblk entry is: 0xffffffffffffffff
132459000: system.l2.tags: Tag of cacheblk entry is: 0xffffffffffffffff
132459000: system.l2.tags: Tag of cacheblk entry is: 0xffffffffffffffff
132683500: system.l2.tags: Tag of cacheblk entry is: 0x0
132683500: system.l2.tags: Tag of cacheblk entry is: 0xffffffffffffffff
132683500: system.l2.tags: Tag of cacheblk entry is: 0xffffffffffffffff
132683500: system.l2.tags: Tag of cacheblk entry is: 0xffffffffffffffff
132683500: system.l2.tags: Tag of cacheblk entry is: 0xffffffffffffffff
132683500: system.l2.tags: Tag of cacheblk entry is: 0xffffffffffffffff
132683500: system.l2.tags: Tag of cacheblk entry is: 0xffffffffffffffff
132683500: system.l2.tags: Tag of cacheblk entry is: 0xffffffffffffffff
132689000: system.l2.tags: Tag of cacheblk entry is: 0xffffffffffffffff
132689000: system.l2.tags: Tag of cacheblk entry is: 0xffffffffffffffff
132689000: system.l2.tags: Tag of cacheblk entry is: 0xffffffffffffffff
132689000: system.l2.tags: Tag of cacheblk entry is: 0xffffffffffffffff
132689000: system.l2.tags: Tag of cacheblk entry is: 0xffffffffffffffff
132689000: system.l2.tags: Tag of cacheblk entry is: 0xffffffffffffffff
132689000: system.l2.tags: Tag of cacheblk entry is: 0xffffffffffffffff
132689000: system.l2.tags: Tag of cacheblk entry is: 0xffffffffffffffff
132710000: system.l2.tags: Tag of cacheblk entry is: 0xffffffffffffffff
132710000: system.l2.tags: Tag of cacheblk entry is: 0xffffffffffffffff
132710000: system.l2.tags: Tag of cacheblk entry is: 0xffffffffffffffff
132710000: system.l2.tags: Tag of cacheblk entry is: 0xffffffffffffffff
132710000: system.l2.tags: Tag of cacheblk entry is: 0xffffffffffffffff
132710000: system.l2.tags: Tag of cacheblk entry is: 0xffffffffffffffff
132710000: system.l2.tags: Tag of cacheblk entry is: 0xffffffffffffffff
132710000: system.l2.tags: Tag of cacheblk entry is: 0xffffffffffffffff
132974000: system.l2.tags: Tag of cacheblk entry is: 0x2
132974000: system.l2.tags: Tag of cacheblk entry is: 0xffffffffffffffff
132974000: system.l2.tags: Tag of cacheblk entry is: 0xffffffffffffffff
132974000: system.l2.tags: Tag of cacheblk entry is: 0xffffffffffffffff
132974000: system.l2.tags: Tag of cacheblk entry is: 0xffffffffffffffff
132974000: system.l2.tags: Tag of cacheblk entry is: 0xffffffffffffffff
132974000: system.l2.tags: Tag of cacheblk entry is: 0xffffffffffffffff
132974000: system.l2.tags: Tag of cacheblk entry is: 0xffffffffffffffff
132990000: system.l2.tags: Tag of cacheblk entry is: 0x1
132990000: system.l2.tags: Tag of cacheblk entry is: 0x1
132990000: system.l2.tags: Tag of cacheblk entry is: 0xffffffffffffffff
132990000: system.l2.tags: Tag of cacheblk entry is: 0xffffffffffffffff
132990000: system.l2.tags: Tag of cacheblk entry is: 0xffffffffffffffff
132990000: system.l2.tags: Tag of cacheblk entry is: 0xffffffffffffffff
132990000: system.l2.tags: Tag of cacheblk entry is: 0xffffffffffffffff
132990000: system.l2.tags: Tag of cacheblk entry is: 0xffffffffffffffff
133014500: system.l2.tags: Tag of cacheblk entry is: 0x1
133014500: system.l2.tags: Tag of cacheblk entry is: 0xffffffffffffffff
133014500: system.l2.tags: Tag of cacheblk entry is: 0xffffffffffffffff
133014500: system.l2.tags: Tag of cacheblk entry is: 0xffffffffffffffff
133014500: system.l2.tags: Tag of cacheblk entry is: 0xffffffffffffffff
133014500: system.l2.tags: Tag of cacheblk entry is: 0xffffffffffffffff
133014500: system.l2.tags: Tag of cacheblk entry is: 0xffffffffffffffff
133014500: system.l2.tags: Tag of cacheblk entry is: 0xffffffffffffffff
133038500: system.l2.tags: Tag of cacheblk entry is: 0xffffffffffffffff
133038500: system.l2.tags: Tag of cacheblk entry is: 0xffffffffffffffff
133038500: system.l2.tags: Tag of cacheblk entry is: 0xffffffffffffffff
133038500: system.l2.tags: Tag of cacheblk entry is: 0xffffffffffffffff
133038500: system.l2.tags: Tag of cacheblk entry is: 0xffffffffffffffff
133038500: system.l2.tags: Tag of cacheblk entry is: 0xffffffffffffffff
133038500: system.l2.tags: Tag of cacheblk entry is: 0xffffffffffffffff
133038500: system.l2.tags: Tag of cacheblk entry is: 0xffffffffffffffff
133283500: system.l2.tags: Tag of cacheblk entry is: 0xffffffffffffffff
133283500: system.l2.tags: Tag of cacheblk entry is: 0xffffffffffffffff
133283500: system.l2.tags: Tag of cacheblk entry is: 0xffffffffffffffff
133283500: system.l2.tags: Tag of cacheblk entry is: 0xffffffffffffffff
133283500: system.l2.tags: Tag of cacheblk entry is: 0xffffffffffffffff
133283500: system.l2.tags: Tag of cacheblk entry is: 0xffffffffffffffff
133283500: system.l2.tags: Tag of cacheblk entry is: 0xffffffffffffffff
133283500: system.l2.tags: Tag of cacheblk entry is: 0xffffffffffffffff
133289500: system.l2.tags: Tag of cacheblk entry is: 0xffffffffffffffff
133289500: system.l2.tags: Tag of cacheblk entry is: 0xffffffffffffffff
133289500: system.l2.tags: Tag of cacheblk entry is: 0xffffffffffffffff
133289500: system.l2.tags: Tag of cacheblk entry is: 0xffffffffffffffff
133289500: system.l2.tags: Tag of cacheblk entry is: 0xffffffffffffffff
133289500: system.l2.tags: Tag of cacheblk entry is: 0xffffffffffffffff
133289500: system.l2.tags: Tag of cacheblk entry is: 0xffffffffffffffff
133289500: system.l2.tags: Tag of cacheblk entry is: 0xffffffffffffffff
133578000: system.l2.tags: Tag of cacheblk entry is: 0xffffffffffffffff
133578000: system.l2.tags: Tag of cacheblk entry is: 0x1
133578000: system.l2.tags: Tag of cacheblk entry is: 0xffffffffffffffff
133578000: system.l2.tags: Tag of cacheblk entry is: 0xffffffffffffffff
133578000: system.l2.tags: Tag of cacheblk entry is: 0xffffffffffffffff
133578000: system.l2.tags: Tag of cacheblk entry is: 0xffffffffffffffff
133578000: system.l2.tags: Tag of cacheblk entry is: 0xffffffffffffffff
133578000: system.l2.tags: Tag of cacheblk entry is: 0xffffffffffffffff
133629000: system.l2.tags: Tag of cacheblk entry is: 0xffffffffffffffff
133629000: system.l2.tags: Tag of cacheblk entry is: 0x1
133629000: system.l2.tags: Tag of cacheblk entry is: 0xffffffffffffffff
133629000: system.l2.tags: Tag of cacheblk entry is: 0xffffffffffffffff
133629000: system.l2.tags: Tag of cacheblk entry is: 0xffffffffffffffff
133629000: system.l2.tags: Tag of cacheblk entry is: 0xffffffffffffffff
133629000: system.l2.tags: Tag of cacheblk entry is: 0xffffffffffffffff
133629000: system.l2.tags: Tag of cacheblk entry is: 0xffffffffffffffff
133858000: system.l2.tags: Tag of cacheblk entry is: 0x0
133858000: system.l2.tags: Tag of cacheblk entry is: 0xffffffffffffffff
133858000: system.l2.tags: Tag of cacheblk entry is: 0xffffffffffffffff
133858000: system.l2.tags: Tag of cacheblk entry is: 0xffffffffffffffff
133858000: system.l2.tags: Tag of cacheblk entry is: 0xffffffffffffffff
133858000: system.l2.tags: Tag of cacheblk entry is: 0xffffffffffffffff
133858000: system.l2.tags: Tag of cacheblk entry is: 0xffffffffffffffff
133858000: system.l2.tags: Tag of cacheblk entry is: 0xffffffffffffffff
133882000: system.l2.tags: Tag of cacheblk entry is: 0xffffffffffffffff
133882000: system.l2.tags: Tag of cacheblk entry is: 0xffffffffffffffff
133882000: system.l2.tags: Tag of cacheblk entry is: 0xffffffffffffffff
133882000: system.l2.tags: Tag of cacheblk entry is: 0xffffffffffffffff
133882000: system.l2.tags: Tag of cacheblk entry is: 0xffffffffffffffff
133882000: system.l2.tags: Tag of cacheblk entry is: 0xffffffffffffffff
133882000: system.l2.tags: Tag of cacheblk entry is: 0xffffffffffffffff
133882000: system.l2.tags: Tag of cacheblk entry is: 0xffffffffffffffff
Exiting @ tick 133882000 because user interrupt received
