
---------- Begin Simulation Statistics ----------
simSeconds                                   1.273062                       # Number of seconds simulated (Second)
simTicks                                 1273062412500                       # Number of ticks simulated (Tick)
finalTick                                1503209885500                       # Number of ticks from beginning of simulation (restored from checkpoints and never reset) (Tick)
simFreq                                  1000000000000                       # The number of ticks per simulated second ((Tick/Second))
hostSeconds                                    591.30                       # Real time elapsed on the host (Second)
hostTickRate                               2152983848                       # The number of ticks simulated per host second (ticks/s) ((Tick/Second))
hostMemory                                    8755060                       # Number of bytes of host memory used (Byte)
simInsts                                    900000001                       # Number of instructions simulated (Count)
simOps                                     1830465965                       # Number of ops (including micro ops) simulated (Count)
hostInstRate                                  1522065                       # Simulator instruction rate (inst/s) ((Count/Second))
hostOpRate                                    3095653                       # Simulator op (including micro ops) rate (op/s) ((Count/Second))
system.clk_domain.clock                          1000                       # Clock period in ticks (Tick)
system.cpu.numCycles                                0                       # Number of cpu cycles simulated (Cycle)
system.cpu.numWorkItemsStarted                      0                       # Number of work items this cpu started (Count)
system.cpu.numWorkItemsCompleted                    0                       # Number of work items this cpu completed (Count)
system.cpu.dcache.demandHits::switch_cpus.data    302380577                       # number of demand (read+write) hits (Count)
system.cpu.dcache.demandHits::total         302380577                       # number of demand (read+write) hits (Count)
system.cpu.dcache.overallHits::switch_cpus.data    302380577                       # number of overall hits (Count)
system.cpu.dcache.overallHits::total        302380577                       # number of overall hits (Count)
system.cpu.dcache.demandMisses::switch_cpus.data       166279                       # number of demand (read+write) misses (Count)
system.cpu.dcache.demandMisses::total          166279                       # number of demand (read+write) misses (Count)
system.cpu.dcache.overallMisses::switch_cpus.data       166279                       # number of overall misses (Count)
system.cpu.dcache.overallMisses::total         166279                       # number of overall misses (Count)
system.cpu.dcache.demandMissLatency::switch_cpus.data  11286975500                       # number of demand (read+write) miss ticks (Tick)
system.cpu.dcache.demandMissLatency::total  11286975500                       # number of demand (read+write) miss ticks (Tick)
system.cpu.dcache.overallMissLatency::switch_cpus.data  11286975500                       # number of overall miss ticks (Tick)
system.cpu.dcache.overallMissLatency::total  11286975500                       # number of overall miss ticks (Tick)
system.cpu.dcache.demandAccesses::switch_cpus.data    302546856                       # number of demand (read+write) accesses (Count)
system.cpu.dcache.demandAccesses::total     302546856                       # number of demand (read+write) accesses (Count)
system.cpu.dcache.overallAccesses::switch_cpus.data    302546856                       # number of overall (read+write) accesses (Count)
system.cpu.dcache.overallAccesses::total    302546856                       # number of overall (read+write) accesses (Count)
system.cpu.dcache.demandMissRate::switch_cpus.data     0.000550                       # miss rate for demand accesses (Ratio)
system.cpu.dcache.demandMissRate::total      0.000550                       # miss rate for demand accesses (Ratio)
system.cpu.dcache.overallMissRate::switch_cpus.data     0.000550                       # miss rate for overall accesses (Ratio)
system.cpu.dcache.overallMissRate::total     0.000550                       # miss rate for overall accesses (Ratio)
system.cpu.dcache.demandAvgMissLatency::switch_cpus.data 67879.741278                       # average overall miss latency in ticks ((Tick/Count))
system.cpu.dcache.demandAvgMissLatency::total 67879.741278                       # average overall miss latency in ticks ((Tick/Count))
system.cpu.dcache.overallAvgMissLatency::switch_cpus.data 67879.741278                       # average overall miss latency ((Tick/Count))
system.cpu.dcache.overallAvgMissLatency::total 67879.741278                       # average overall miss latency ((Tick/Count))
system.cpu.dcache.blockedCycles::no_mshrs            0                       # number of cycles access was blocked (Cycle)
system.cpu.dcache.blockedCycles::no_targets            0                       # number of cycles access was blocked (Cycle)
system.cpu.dcache.blockedCauses::no_mshrs            0                       # number of times access was blocked (Count)
system.cpu.dcache.blockedCauses::no_targets            0                       # number of times access was blocked (Count)
system.cpu.dcache.avgBlocked::no_mshrs            nan                       # average number of cycles each access was blocked ((Cycle/Count))
system.cpu.dcache.avgBlocked::no_targets          nan                       # average number of cycles each access was blocked ((Cycle/Count))
system.cpu.dcache.writebacks::writebacks       166279                       # number of writebacks (Count)
system.cpu.dcache.writebacks::total            166279                       # number of writebacks (Count)
system.cpu.dcache.demandMshrMisses::switch_cpus.data       166279                       # number of demand (read+write) MSHR misses (Count)
system.cpu.dcache.demandMshrMisses::total       166279                       # number of demand (read+write) MSHR misses (Count)
system.cpu.dcache.overallMshrMisses::switch_cpus.data       166279                       # number of overall MSHR misses (Count)
system.cpu.dcache.overallMshrMisses::total       166279                       # number of overall MSHR misses (Count)
system.cpu.dcache.demandMshrMissLatency::switch_cpus.data  11120696500                       # number of demand (read+write) MSHR miss ticks (Tick)
system.cpu.dcache.demandMshrMissLatency::total  11120696500                       # number of demand (read+write) MSHR miss ticks (Tick)
system.cpu.dcache.overallMshrMissLatency::switch_cpus.data  11120696500                       # number of overall MSHR miss ticks (Tick)
system.cpu.dcache.overallMshrMissLatency::total  11120696500                       # number of overall MSHR miss ticks (Tick)
system.cpu.dcache.demandMshrMissRate::switch_cpus.data     0.000550                       # mshr miss ratio for demand accesses (Ratio)
system.cpu.dcache.demandMshrMissRate::total     0.000550                       # mshr miss ratio for demand accesses (Ratio)
system.cpu.dcache.overallMshrMissRate::switch_cpus.data     0.000550                       # mshr miss ratio for overall accesses (Ratio)
system.cpu.dcache.overallMshrMissRate::total     0.000550                       # mshr miss ratio for overall accesses (Ratio)
system.cpu.dcache.demandAvgMshrMissLatency::switch_cpus.data 66879.741278                       # average overall mshr miss latency ((Tick/Count))
system.cpu.dcache.demandAvgMshrMissLatency::total 66879.741278                       # average overall mshr miss latency ((Tick/Count))
system.cpu.dcache.overallAvgMshrMissLatency::switch_cpus.data 66879.741278                       # average overall mshr miss latency ((Tick/Count))
system.cpu.dcache.overallAvgMshrMissLatency::total 66879.741278                       # average overall mshr miss latency ((Tick/Count))
system.cpu.dcache.replacements                 166279                       # number of replacements (Count)
system.cpu.dcache.ReadReq.hits::switch_cpus.data    194678912                       # number of ReadReq hits (Count)
system.cpu.dcache.ReadReq.hits::total       194678912                       # number of ReadReq hits (Count)
system.cpu.dcache.ReadReq.misses::switch_cpus.data        34375                       # number of ReadReq misses (Count)
system.cpu.dcache.ReadReq.misses::total         34375                       # number of ReadReq misses (Count)
system.cpu.dcache.ReadReq.missLatency::switch_cpus.data    547683500                       # number of ReadReq miss ticks (Tick)
system.cpu.dcache.ReadReq.missLatency::total    547683500                       # number of ReadReq miss ticks (Tick)
system.cpu.dcache.ReadReq.accesses::switch_cpus.data    194713287                       # number of ReadReq accesses(hits+misses) (Count)
system.cpu.dcache.ReadReq.accesses::total    194713287                       # number of ReadReq accesses(hits+misses) (Count)
system.cpu.dcache.ReadReq.missRate::switch_cpus.data     0.000177                       # miss rate for ReadReq accesses (Ratio)
system.cpu.dcache.ReadReq.missRate::total     0.000177                       # miss rate for ReadReq accesses (Ratio)
system.cpu.dcache.ReadReq.avgMissLatency::switch_cpus.data 15932.610909                       # average ReadReq miss latency ((Tick/Count))
system.cpu.dcache.ReadReq.avgMissLatency::total 15932.610909                       # average ReadReq miss latency ((Tick/Count))
system.cpu.dcache.ReadReq.mshrMisses::switch_cpus.data        34375                       # number of ReadReq MSHR misses (Count)
system.cpu.dcache.ReadReq.mshrMisses::total        34375                       # number of ReadReq MSHR misses (Count)
system.cpu.dcache.ReadReq.mshrMissLatency::switch_cpus.data    513308500                       # number of ReadReq MSHR miss ticks (Tick)
system.cpu.dcache.ReadReq.mshrMissLatency::total    513308500                       # number of ReadReq MSHR miss ticks (Tick)
system.cpu.dcache.ReadReq.mshrMissRate::switch_cpus.data     0.000177                       # mshr miss rate for ReadReq accesses (Ratio)
system.cpu.dcache.ReadReq.mshrMissRate::total     0.000177                       # mshr miss rate for ReadReq accesses (Ratio)
system.cpu.dcache.ReadReq.avgMshrMissLatency::switch_cpus.data 14932.610909                       # average ReadReq mshr miss latency ((Tick/Count))
system.cpu.dcache.ReadReq.avgMshrMissLatency::total 14932.610909                       # average ReadReq mshr miss latency ((Tick/Count))
system.cpu.dcache.WriteReq.hits::switch_cpus.data    107701665                       # number of WriteReq hits (Count)
system.cpu.dcache.WriteReq.hits::total      107701665                       # number of WriteReq hits (Count)
system.cpu.dcache.WriteReq.misses::switch_cpus.data       131904                       # number of WriteReq misses (Count)
system.cpu.dcache.WriteReq.misses::total       131904                       # number of WriteReq misses (Count)
system.cpu.dcache.WriteReq.missLatency::switch_cpus.data  10739292000                       # number of WriteReq miss ticks (Tick)
system.cpu.dcache.WriteReq.missLatency::total  10739292000                       # number of WriteReq miss ticks (Tick)
system.cpu.dcache.WriteReq.accesses::switch_cpus.data    107833569                       # number of WriteReq accesses(hits+misses) (Count)
system.cpu.dcache.WriteReq.accesses::total    107833569                       # number of WriteReq accesses(hits+misses) (Count)
system.cpu.dcache.WriteReq.missRate::switch_cpus.data     0.001223                       # miss rate for WriteReq accesses (Ratio)
system.cpu.dcache.WriteReq.missRate::total     0.001223                       # miss rate for WriteReq accesses (Ratio)
system.cpu.dcache.WriteReq.avgMissLatency::switch_cpus.data 81417.485444                       # average WriteReq miss latency ((Tick/Count))
system.cpu.dcache.WriteReq.avgMissLatency::total 81417.485444                       # average WriteReq miss latency ((Tick/Count))
system.cpu.dcache.WriteReq.mshrMisses::switch_cpus.data       131904                       # number of WriteReq MSHR misses (Count)
system.cpu.dcache.WriteReq.mshrMisses::total       131904                       # number of WriteReq MSHR misses (Count)
system.cpu.dcache.WriteReq.mshrMissLatency::switch_cpus.data  10607388000                       # number of WriteReq MSHR miss ticks (Tick)
system.cpu.dcache.WriteReq.mshrMissLatency::total  10607388000                       # number of WriteReq MSHR miss ticks (Tick)
system.cpu.dcache.WriteReq.mshrMissRate::switch_cpus.data     0.001223                       # mshr miss rate for WriteReq accesses (Ratio)
system.cpu.dcache.WriteReq.mshrMissRate::total     0.001223                       # mshr miss rate for WriteReq accesses (Ratio)
system.cpu.dcache.WriteReq.avgMshrMissLatency::switch_cpus.data 80417.485444                       # average WriteReq mshr miss latency ((Tick/Count))
system.cpu.dcache.WriteReq.avgMshrMissLatency::total 80417.485444                       # average WriteReq mshr miss latency ((Tick/Count))
system.cpu.dcache.power_state.pwrStateResidencyTicks::UNDEFINED 1503209885500                       # Cumulative time (in ticks) in various power states (Tick)
system.cpu.dcache.tags.tagsInUse                  384                       # Average ticks per tags in use ((Tick/Count))
system.cpu.dcache.tags.totalRefs            355317702                       # Total number of references to valid blocks. (Count)
system.cpu.dcache.tags.sampledRefs             166663                       # Sample count of references to valid blocks. (Count)
system.cpu.dcache.tags.avgRefs            2131.953115                       # Average number of references to valid blocks. ((Count/Count))
system.cpu.dcache.tags.warmupTick                   0                       # The tick when the warmup percentage was hit. (Tick)
system.cpu.dcache.tags.occupancies::cpu.data    26.331394                       # Average occupied blocks per tick, per requestor ((Count/Tick))
system.cpu.dcache.tags.occupancies::switch_cpus.data   357.668606                       # Average occupied blocks per tick, per requestor ((Count/Tick))
system.cpu.dcache.tags.avgOccs::cpu.data     0.068571                       # Average percentage of cache occupancy ((Ratio/Tick))
system.cpu.dcache.tags.avgOccs::switch_cpus.data     0.931429                       # Average percentage of cache occupancy ((Ratio/Tick))
system.cpu.dcache.tags.avgOccs::total               1                       # Average percentage of cache occupancy ((Ratio/Tick))
system.cpu.dcache.tags.occupanciesTaskId::1024          384                       # Occupied blocks per task id (Count)
system.cpu.dcache.tags.ageTaskId_1024::4          384                       # Occupied blocks per task id, per block age (Count)
system.cpu.dcache.tags.ratioOccsTaskId::1024            1                       # Ratio of occupied blocks and all blocks, per task id (Ratio)
system.cpu.dcache.tags.tagAccesses         1815447415                       # Number of tag accesses (Count)
system.cpu.dcache.tags.dataAccesses        1815447415                       # Number of data accesses (Count)
system.cpu.dcache.tags.power_state.pwrStateResidencyTicks::UNDEFINED 1503209885500                       # Cumulative time (in ticks) in various power states (Tick)
system.cpu.dtb_walker_cache.blockedCycles::no_mshrs            0                       # number of cycles access was blocked (Cycle)
system.cpu.dtb_walker_cache.blockedCycles::no_targets            0                       # number of cycles access was blocked (Cycle)
system.cpu.dtb_walker_cache.blockedCauses::no_mshrs            0                       # number of times access was blocked (Count)
system.cpu.dtb_walker_cache.blockedCauses::no_targets            0                       # number of times access was blocked (Count)
system.cpu.dtb_walker_cache.avgBlocked::no_mshrs          nan                       # average number of cycles each access was blocked ((Cycle/Count))
system.cpu.dtb_walker_cache.avgBlocked::no_targets          nan                       # average number of cycles each access was blocked ((Cycle/Count))
system.cpu.dtb_walker_cache.replacements            0                       # number of replacements (Count)
system.cpu.dtb_walker_cache.power_state.pwrStateResidencyTicks::UNDEFINED 1503209885500                       # Cumulative time (in ticks) in various power states (Tick)
system.cpu.dtb_walker_cache.tags.tagsInUse            0                       # Average ticks per tags in use ((Tick/Count))
system.cpu.dtb_walker_cache.tags.totalRefs            0                       # Total number of references to valid blocks. (Count)
system.cpu.dtb_walker_cache.tags.sampledRefs            0                       # Sample count of references to valid blocks. (Count)
system.cpu.dtb_walker_cache.tags.avgRefs          nan                       # Average number of references to valid blocks. ((Count/Count))
system.cpu.dtb_walker_cache.tags.warmupTick            0                       # The tick when the warmup percentage was hit. (Tick)
system.cpu.dtb_walker_cache.tags.tagAccesses            0                       # Number of tag accesses (Count)
system.cpu.dtb_walker_cache.tags.dataAccesses            0                       # Number of data accesses (Count)
system.cpu.dtb_walker_cache.tags.power_state.pwrStateResidencyTicks::UNDEFINED 1503209885500                       # Cumulative time (in ticks) in various power states (Tick)
system.cpu.exec_context.thread_0.numInsts            0                       # Number of instructions committed (Count)
system.cpu.exec_context.thread_0.numOps             0                       # Number of ops (including micro ops) committed (Count)
system.cpu.exec_context.thread_0.numIntAluAccesses            0                       # Number of integer alu accesses (Count)
system.cpu.exec_context.thread_0.numFpAluAccesses            0                       # Number of float alu accesses (Count)
system.cpu.exec_context.thread_0.numVecAluAccesses            0                       # Number of vector alu accesses (Count)
system.cpu.exec_context.thread_0.numCallsReturns            0                       # Number of times a function call or return occured (Count)
system.cpu.exec_context.thread_0.numCondCtrlInsts            0                       # Number of instructions that are conditional controls (Count)
system.cpu.exec_context.thread_0.numIntInsts            0                       # Number of integer instructions (Count)
system.cpu.exec_context.thread_0.numFpInsts            0                       # Number of float instructions (Count)
system.cpu.exec_context.thread_0.numVecInsts            0                       # Number of vector instructions (Count)
system.cpu.exec_context.thread_0.numIntRegReads            0                       # Number of times the integer registers were read (Count)
system.cpu.exec_context.thread_0.numIntRegWrites            0                       # Number of times the integer registers were written (Count)
system.cpu.exec_context.thread_0.numFpRegReads            0                       # Number of times the floating registers were read (Count)
system.cpu.exec_context.thread_0.numFpRegWrites            0                       # Number of times the floating registers were written (Count)
system.cpu.exec_context.thread_0.numVecRegReads            0                       # Number of times the vector registers were read (Count)
system.cpu.exec_context.thread_0.numVecRegWrites            0                       # Number of times the vector registers were written (Count)
system.cpu.exec_context.thread_0.numVecPredRegReads            0                       # Number of times the predicate registers were read (Count)
system.cpu.exec_context.thread_0.numVecPredRegWrites            0                       # Number of times the predicate registers were written (Count)
system.cpu.exec_context.thread_0.numMiscRegReads            0                       # Number of times the Misc registers were read (Count)
system.cpu.exec_context.thread_0.numMiscRegWrites            0                       # Number of times the Misc registers were written (Count)
system.cpu.exec_context.thread_0.numMemRefs            0                       # Number of memory refs (Count)
system.cpu.exec_context.thread_0.numLoadInsts            0                       # Number of load instructions (Count)
system.cpu.exec_context.thread_0.numStoreInsts            0                       # Number of store instructions (Count)
system.cpu.exec_context.thread_0.numIdleCycles            0                       # Number of idle cycles (Cycle)
system.cpu.exec_context.thread_0.numBusyCycles            0                       # Number of busy cycles (Cycle)
system.cpu.exec_context.thread_0.notIdleFraction            1                       # Percentage of non-idle cycles (Ratio)
system.cpu.exec_context.thread_0.idleFraction            0                       # Percentage of idle cycles (Ratio)
system.cpu.exec_context.thread_0.statExecutedInstType::No_OpClass            0                       # Class of executed instruction. (Count)
system.cpu.exec_context.thread_0.statExecutedInstType::IntAlu            0                       # Class of executed instruction. (Count)
system.cpu.exec_context.thread_0.statExecutedInstType::IntMult            0                       # Class of executed instruction. (Count)
system.cpu.exec_context.thread_0.statExecutedInstType::IntDiv            0                       # Class of executed instruction. (Count)
system.cpu.exec_context.thread_0.statExecutedInstType::FloatAdd            0                       # Class of executed instruction. (Count)
system.cpu.exec_context.thread_0.statExecutedInstType::FloatCmp            0                       # Class of executed instruction. (Count)
system.cpu.exec_context.thread_0.statExecutedInstType::FloatCvt            0                       # Class of executed instruction. (Count)
system.cpu.exec_context.thread_0.statExecutedInstType::FloatMult            0                       # Class of executed instruction. (Count)
system.cpu.exec_context.thread_0.statExecutedInstType::FloatMultAcc            0                       # Class of executed instruction. (Count)
system.cpu.exec_context.thread_0.statExecutedInstType::FloatDiv            0                       # Class of executed instruction. (Count)
system.cpu.exec_context.thread_0.statExecutedInstType::FloatMisc            0                       # Class of executed instruction. (Count)
system.cpu.exec_context.thread_0.statExecutedInstType::FloatSqrt            0                       # Class of executed instruction. (Count)
system.cpu.exec_context.thread_0.statExecutedInstType::SimdAdd            0                       # Class of executed instruction. (Count)
system.cpu.exec_context.thread_0.statExecutedInstType::SimdAddAcc            0                       # Class of executed instruction. (Count)
system.cpu.exec_context.thread_0.statExecutedInstType::SimdAlu            0                       # Class of executed instruction. (Count)
system.cpu.exec_context.thread_0.statExecutedInstType::SimdCmp            0                       # Class of executed instruction. (Count)
system.cpu.exec_context.thread_0.statExecutedInstType::SimdCvt            0                       # Class of executed instruction. (Count)
system.cpu.exec_context.thread_0.statExecutedInstType::SimdMisc            0                       # Class of executed instruction. (Count)
system.cpu.exec_context.thread_0.statExecutedInstType::SimdMult            0                       # Class of executed instruction. (Count)
system.cpu.exec_context.thread_0.statExecutedInstType::SimdMultAcc            0                       # Class of executed instruction. (Count)
system.cpu.exec_context.thread_0.statExecutedInstType::SimdShift            0                       # Class of executed instruction. (Count)
system.cpu.exec_context.thread_0.statExecutedInstType::SimdShiftAcc            0                       # Class of executed instruction. (Count)
system.cpu.exec_context.thread_0.statExecutedInstType::SimdDiv            0                       # Class of executed instruction. (Count)
system.cpu.exec_context.thread_0.statExecutedInstType::SimdSqrt            0                       # Class of executed instruction. (Count)
system.cpu.exec_context.thread_0.statExecutedInstType::SimdFloatAdd            0                       # Class of executed instruction. (Count)
system.cpu.exec_context.thread_0.statExecutedInstType::SimdFloatAlu            0                       # Class of executed instruction. (Count)
system.cpu.exec_context.thread_0.statExecutedInstType::SimdFloatCmp            0                       # Class of executed instruction. (Count)
system.cpu.exec_context.thread_0.statExecutedInstType::SimdFloatCvt            0                       # Class of executed instruction. (Count)
system.cpu.exec_context.thread_0.statExecutedInstType::SimdFloatDiv            0                       # Class of executed instruction. (Count)
system.cpu.exec_context.thread_0.statExecutedInstType::SimdFloatMisc            0                       # Class of executed instruction. (Count)
system.cpu.exec_context.thread_0.statExecutedInstType::SimdFloatMult            0                       # Class of executed instruction. (Count)
system.cpu.exec_context.thread_0.statExecutedInstType::SimdFloatMultAcc            0                       # Class of executed instruction. (Count)
system.cpu.exec_context.thread_0.statExecutedInstType::SimdFloatSqrt            0                       # Class of executed instruction. (Count)
system.cpu.exec_context.thread_0.statExecutedInstType::SimdReduceAdd            0                       # Class of executed instruction. (Count)
system.cpu.exec_context.thread_0.statExecutedInstType::SimdReduceAlu            0                       # Class of executed instruction. (Count)
system.cpu.exec_context.thread_0.statExecutedInstType::SimdReduceCmp            0                       # Class of executed instruction. (Count)
system.cpu.exec_context.thread_0.statExecutedInstType::SimdFloatReduceAdd            0                       # Class of executed instruction. (Count)
system.cpu.exec_context.thread_0.statExecutedInstType::SimdFloatReduceCmp            0                       # Class of executed instruction. (Count)
system.cpu.exec_context.thread_0.statExecutedInstType::SimdAes            0                       # Class of executed instruction. (Count)
system.cpu.exec_context.thread_0.statExecutedInstType::SimdAesMix            0                       # Class of executed instruction. (Count)
system.cpu.exec_context.thread_0.statExecutedInstType::SimdSha1Hash            0                       # Class of executed instruction. (Count)
system.cpu.exec_context.thread_0.statExecutedInstType::SimdSha1Hash2            0                       # Class of executed instruction. (Count)
system.cpu.exec_context.thread_0.statExecutedInstType::SimdSha256Hash            0                       # Class of executed instruction. (Count)
system.cpu.exec_context.thread_0.statExecutedInstType::SimdSha256Hash2            0                       # Class of executed instruction. (Count)
system.cpu.exec_context.thread_0.statExecutedInstType::SimdShaSigma2            0                       # Class of executed instruction. (Count)
system.cpu.exec_context.thread_0.statExecutedInstType::SimdShaSigma3            0                       # Class of executed instruction. (Count)
system.cpu.exec_context.thread_0.statExecutedInstType::SimdPredAlu            0                       # Class of executed instruction. (Count)
system.cpu.exec_context.thread_0.statExecutedInstType::MemRead            0                       # Class of executed instruction. (Count)
system.cpu.exec_context.thread_0.statExecutedInstType::MemWrite            0                       # Class of executed instruction. (Count)
system.cpu.exec_context.thread_0.statExecutedInstType::FloatMemRead            0                       # Class of executed instruction. (Count)
system.cpu.exec_context.thread_0.statExecutedInstType::FloatMemWrite            0                       # Class of executed instruction. (Count)
system.cpu.exec_context.thread_0.statExecutedInstType::IprAccess            0                       # Class of executed instruction. (Count)
system.cpu.exec_context.thread_0.statExecutedInstType::InstPrefetch            0                       # Class of executed instruction. (Count)
system.cpu.exec_context.thread_0.statExecutedInstType::total            0                       # Class of executed instruction. (Count)
system.cpu.icache.demandHits::switch_cpus.inst    959350147                       # number of demand (read+write) hits (Count)
system.cpu.icache.demandHits::total         959350147                       # number of demand (read+write) hits (Count)
system.cpu.icache.overallHits::switch_cpus.inst    959350147                       # number of overall hits (Count)
system.cpu.icache.overallHits::total        959350147                       # number of overall hits (Count)
system.cpu.icache.demandMisses::switch_cpus.inst         1782                       # number of demand (read+write) misses (Count)
system.cpu.icache.demandMisses::total            1782                       # number of demand (read+write) misses (Count)
system.cpu.icache.overallMisses::switch_cpus.inst         1782                       # number of overall misses (Count)
system.cpu.icache.overallMisses::total           1782                       # number of overall misses (Count)
system.cpu.icache.demandMissLatency::switch_cpus.inst     60048500                       # number of demand (read+write) miss ticks (Tick)
system.cpu.icache.demandMissLatency::total     60048500                       # number of demand (read+write) miss ticks (Tick)
system.cpu.icache.overallMissLatency::switch_cpus.inst     60048500                       # number of overall miss ticks (Tick)
system.cpu.icache.overallMissLatency::total     60048500                       # number of overall miss ticks (Tick)
system.cpu.icache.demandAccesses::switch_cpus.inst    959351929                       # number of demand (read+write) accesses (Count)
system.cpu.icache.demandAccesses::total     959351929                       # number of demand (read+write) accesses (Count)
system.cpu.icache.overallAccesses::switch_cpus.inst    959351929                       # number of overall (read+write) accesses (Count)
system.cpu.icache.overallAccesses::total    959351929                       # number of overall (read+write) accesses (Count)
system.cpu.icache.demandMissRate::switch_cpus.inst     0.000002                       # miss rate for demand accesses (Ratio)
system.cpu.icache.demandMissRate::total      0.000002                       # miss rate for demand accesses (Ratio)
system.cpu.icache.overallMissRate::switch_cpus.inst     0.000002                       # miss rate for overall accesses (Ratio)
system.cpu.icache.overallMissRate::total     0.000002                       # miss rate for overall accesses (Ratio)
system.cpu.icache.demandAvgMissLatency::switch_cpus.inst 33697.250281                       # average overall miss latency in ticks ((Tick/Count))
system.cpu.icache.demandAvgMissLatency::total 33697.250281                       # average overall miss latency in ticks ((Tick/Count))
system.cpu.icache.overallAvgMissLatency::switch_cpus.inst 33697.250281                       # average overall miss latency ((Tick/Count))
system.cpu.icache.overallAvgMissLatency::total 33697.250281                       # average overall miss latency ((Tick/Count))
system.cpu.icache.blockedCycles::no_mshrs            0                       # number of cycles access was blocked (Cycle)
system.cpu.icache.blockedCycles::no_targets            0                       # number of cycles access was blocked (Cycle)
system.cpu.icache.blockedCauses::no_mshrs            0                       # number of times access was blocked (Count)
system.cpu.icache.blockedCauses::no_targets            0                       # number of times access was blocked (Count)
system.cpu.icache.avgBlocked::no_mshrs            nan                       # average number of cycles each access was blocked ((Cycle/Count))
system.cpu.icache.avgBlocked::no_targets          nan                       # average number of cycles each access was blocked ((Cycle/Count))
system.cpu.icache.writebacks::writebacks         1782                       # number of writebacks (Count)
system.cpu.icache.writebacks::total              1782                       # number of writebacks (Count)
system.cpu.icache.demandMshrMisses::switch_cpus.inst         1782                       # number of demand (read+write) MSHR misses (Count)
system.cpu.icache.demandMshrMisses::total         1782                       # number of demand (read+write) MSHR misses (Count)
system.cpu.icache.overallMshrMisses::switch_cpus.inst         1782                       # number of overall MSHR misses (Count)
system.cpu.icache.overallMshrMisses::total         1782                       # number of overall MSHR misses (Count)
system.cpu.icache.demandMshrMissLatency::switch_cpus.inst     58266500                       # number of demand (read+write) MSHR miss ticks (Tick)
system.cpu.icache.demandMshrMissLatency::total     58266500                       # number of demand (read+write) MSHR miss ticks (Tick)
system.cpu.icache.overallMshrMissLatency::switch_cpus.inst     58266500                       # number of overall MSHR miss ticks (Tick)
system.cpu.icache.overallMshrMissLatency::total     58266500                       # number of overall MSHR miss ticks (Tick)
system.cpu.icache.demandMshrMissRate::switch_cpus.inst     0.000002                       # mshr miss ratio for demand accesses (Ratio)
system.cpu.icache.demandMshrMissRate::total     0.000002                       # mshr miss ratio for demand accesses (Ratio)
system.cpu.icache.overallMshrMissRate::switch_cpus.inst     0.000002                       # mshr miss ratio for overall accesses (Ratio)
system.cpu.icache.overallMshrMissRate::total     0.000002                       # mshr miss ratio for overall accesses (Ratio)
system.cpu.icache.demandAvgMshrMissLatency::switch_cpus.inst 32697.250281                       # average overall mshr miss latency ((Tick/Count))
system.cpu.icache.demandAvgMshrMissLatency::total 32697.250281                       # average overall mshr miss latency ((Tick/Count))
system.cpu.icache.overallAvgMshrMissLatency::switch_cpus.inst 32697.250281                       # average overall mshr miss latency ((Tick/Count))
system.cpu.icache.overallAvgMshrMissLatency::total 32697.250281                       # average overall mshr miss latency ((Tick/Count))
system.cpu.icache.replacements                   1782                       # number of replacements (Count)
system.cpu.icache.ReadReq.hits::switch_cpus.inst    959350147                       # number of ReadReq hits (Count)
system.cpu.icache.ReadReq.hits::total       959350147                       # number of ReadReq hits (Count)
system.cpu.icache.ReadReq.misses::switch_cpus.inst         1782                       # number of ReadReq misses (Count)
system.cpu.icache.ReadReq.misses::total          1782                       # number of ReadReq misses (Count)
system.cpu.icache.ReadReq.missLatency::switch_cpus.inst     60048500                       # number of ReadReq miss ticks (Tick)
system.cpu.icache.ReadReq.missLatency::total     60048500                       # number of ReadReq miss ticks (Tick)
system.cpu.icache.ReadReq.accesses::switch_cpus.inst    959351929                       # number of ReadReq accesses(hits+misses) (Count)
system.cpu.icache.ReadReq.accesses::total    959351929                       # number of ReadReq accesses(hits+misses) (Count)
system.cpu.icache.ReadReq.missRate::switch_cpus.inst     0.000002                       # miss rate for ReadReq accesses (Ratio)
system.cpu.icache.ReadReq.missRate::total     0.000002                       # miss rate for ReadReq accesses (Ratio)
system.cpu.icache.ReadReq.avgMissLatency::switch_cpus.inst 33697.250281                       # average ReadReq miss latency ((Tick/Count))
system.cpu.icache.ReadReq.avgMissLatency::total 33697.250281                       # average ReadReq miss latency ((Tick/Count))
system.cpu.icache.ReadReq.mshrMisses::switch_cpus.inst         1782                       # number of ReadReq MSHR misses (Count)
system.cpu.icache.ReadReq.mshrMisses::total         1782                       # number of ReadReq MSHR misses (Count)
system.cpu.icache.ReadReq.mshrMissLatency::switch_cpus.inst     58266500                       # number of ReadReq MSHR miss ticks (Tick)
system.cpu.icache.ReadReq.mshrMissLatency::total     58266500                       # number of ReadReq MSHR miss ticks (Tick)
system.cpu.icache.ReadReq.mshrMissRate::switch_cpus.inst     0.000002                       # mshr miss rate for ReadReq accesses (Ratio)
system.cpu.icache.ReadReq.mshrMissRate::total     0.000002                       # mshr miss rate for ReadReq accesses (Ratio)
system.cpu.icache.ReadReq.avgMshrMissLatency::switch_cpus.inst 32697.250281                       # average ReadReq mshr miss latency ((Tick/Count))
system.cpu.icache.ReadReq.avgMshrMissLatency::total 32697.250281                       # average ReadReq mshr miss latency ((Tick/Count))
system.cpu.icache.power_state.pwrStateResidencyTicks::UNDEFINED 1503209885500                       # Cumulative time (in ticks) in various power states (Tick)
system.cpu.icache.tags.tagsInUse                  512                       # Average ticks per tags in use ((Tick/Count))
system.cpu.icache.tags.totalRefs           1220214832                       # Total number of references to valid blocks. (Count)
system.cpu.icache.tags.sampledRefs               2294                       # Sample count of references to valid blocks. (Count)
system.cpu.icache.tags.avgRefs           531915.794246                       # Average number of references to valid blocks. ((Count/Count))
system.cpu.icache.tags.warmupTick                   0                       # The tick when the warmup percentage was hit. (Tick)
system.cpu.icache.tags.occupancies::cpu.inst   219.729289                       # Average occupied blocks per tick, per requestor ((Count/Tick))
system.cpu.icache.tags.occupancies::switch_cpus.inst   292.270711                       # Average occupied blocks per tick, per requestor ((Count/Tick))
system.cpu.icache.tags.avgOccs::cpu.inst     0.429159                       # Average percentage of cache occupancy ((Ratio/Tick))
system.cpu.icache.tags.avgOccs::switch_cpus.inst     0.570841                       # Average percentage of cache occupancy ((Ratio/Tick))
system.cpu.icache.tags.avgOccs::total               1                       # Average percentage of cache occupancy ((Ratio/Tick))
system.cpu.icache.tags.occupanciesTaskId::1024          512                       # Occupied blocks per task id (Count)
system.cpu.icache.tags.ageTaskId_1024::4          512                       # Occupied blocks per task id, per block age (Count)
system.cpu.icache.tags.ratioOccsTaskId::1024            1                       # Ratio of occupied blocks and all blocks, per task id (Ratio)
system.cpu.icache.tags.tagAccesses         7674817214                       # Number of tag accesses (Count)
system.cpu.icache.tags.dataAccesses        7674817214                       # Number of data accesses (Count)
system.cpu.icache.tags.power_state.pwrStateResidencyTicks::UNDEFINED 1503209885500                       # Cumulative time (in ticks) in various power states (Tick)
system.cpu.interrupts.clk_domain.clock           8000                       # Clock period in ticks (Tick)
system.cpu.itb_walker_cache.blockedCycles::no_mshrs            0                       # number of cycles access was blocked (Cycle)
system.cpu.itb_walker_cache.blockedCycles::no_targets            0                       # number of cycles access was blocked (Cycle)
system.cpu.itb_walker_cache.blockedCauses::no_mshrs            0                       # number of times access was blocked (Count)
system.cpu.itb_walker_cache.blockedCauses::no_targets            0                       # number of times access was blocked (Count)
system.cpu.itb_walker_cache.avgBlocked::no_mshrs          nan                       # average number of cycles each access was blocked ((Cycle/Count))
system.cpu.itb_walker_cache.avgBlocked::no_targets          nan                       # average number of cycles each access was blocked ((Cycle/Count))
system.cpu.itb_walker_cache.replacements            0                       # number of replacements (Count)
system.cpu.itb_walker_cache.power_state.pwrStateResidencyTicks::UNDEFINED 1503209885500                       # Cumulative time (in ticks) in various power states (Tick)
system.cpu.itb_walker_cache.tags.tagsInUse            0                       # Average ticks per tags in use ((Tick/Count))
system.cpu.itb_walker_cache.tags.totalRefs            0                       # Total number of references to valid blocks. (Count)
system.cpu.itb_walker_cache.tags.sampledRefs            0                       # Sample count of references to valid blocks. (Count)
system.cpu.itb_walker_cache.tags.avgRefs          nan                       # Average number of references to valid blocks. ((Count/Count))
system.cpu.itb_walker_cache.tags.warmupTick            0                       # The tick when the warmup percentage was hit. (Tick)
system.cpu.itb_walker_cache.tags.tagAccesses            0                       # Number of tag accesses (Count)
system.cpu.itb_walker_cache.tags.dataAccesses            0                       # Number of data accesses (Count)
system.cpu.itb_walker_cache.tags.power_state.pwrStateResidencyTicks::UNDEFINED 1503209885500                       # Cumulative time (in ticks) in various power states (Tick)
system.cpu.mmu.dtb.rdAccesses                       0                       # TLB accesses on read requests (Count)
system.cpu.mmu.dtb.wrAccesses                       0                       # TLB accesses on write requests (Count)
system.cpu.mmu.dtb.rdMisses                         0                       # TLB misses on read requests (Count)
system.cpu.mmu.dtb.wrMisses                         0                       # TLB misses on write requests (Count)
system.cpu.mmu.dtb.walker.power_state.pwrStateResidencyTicks::UNDEFINED 1503209885500                       # Cumulative time (in ticks) in various power states (Tick)
system.cpu.mmu.itb.rdAccesses                       0                       # TLB accesses on read requests (Count)
system.cpu.mmu.itb.wrAccesses                       0                       # TLB accesses on write requests (Count)
system.cpu.mmu.itb.rdMisses                         0                       # TLB misses on read requests (Count)
system.cpu.mmu.itb.wrMisses                         0                       # TLB misses on write requests (Count)
system.cpu.mmu.itb.walker.power_state.pwrStateResidencyTicks::UNDEFINED 1503209885500                       # Cumulative time (in ticks) in various power states (Tick)
system.cpu.power_state.pwrStateResidencyTicks::OFF 1273062412500                       # Cumulative time (in ticks) in various power states (Tick)
system.cpu.thread_0.numInsts                        0                       # Number of Instructions committed (Count)
system.cpu.thread_0.numOps                          0                       # Number of Ops committed (Count)
system.cpu.thread_0.numMemRefs                      0                       # Number of Memory References (Count)
system.cpu.workload.numSyscalls                  1280                       # Number of system calls (Count)
system.cpu_clk_domain.clock                       500                       # Clock period in ticks (Tick)
system.cpu_voltage_domain.voltage                   1                       # Voltage in Volts (Volt)
system.l2.demandHits::switch_cpus.inst           1296                       # number of demand (read+write) hits (Count)
system.l2.demandHits::switch_cpus.data          37344                       # number of demand (read+write) hits (Count)
system.l2.demandHits::total                     38640                       # number of demand (read+write) hits (Count)
system.l2.overallHits::switch_cpus.inst          1296                       # number of overall hits (Count)
system.l2.overallHits::switch_cpus.data         37344                       # number of overall hits (Count)
system.l2.overallHits::total                    38640                       # number of overall hits (Count)
system.l2.demandMisses::switch_cpus.inst          486                       # number of demand (read+write) misses (Count)
system.l2.demandMisses::switch_cpus.data       128935                       # number of demand (read+write) misses (Count)
system.l2.demandMisses::total                  129421                       # number of demand (read+write) misses (Count)
system.l2.overallMisses::switch_cpus.inst          486                       # number of overall misses (Count)
system.l2.overallMisses::switch_cpus.data       128935                       # number of overall misses (Count)
system.l2.overallMisses::total                 129421                       # number of overall misses (Count)
system.l2.demandMissLatency::switch_cpus.inst     41962000                       # number of demand (read+write) miss ticks (Tick)
system.l2.demandMissLatency::switch_cpus.data  10479141500                       # number of demand (read+write) miss ticks (Tick)
system.l2.demandMissLatency::total        10521103500                       # number of demand (read+write) miss ticks (Tick)
system.l2.overallMissLatency::switch_cpus.inst     41962000                       # number of overall miss ticks (Tick)
system.l2.overallMissLatency::switch_cpus.data  10479141500                       # number of overall miss ticks (Tick)
system.l2.overallMissLatency::total       10521103500                       # number of overall miss ticks (Tick)
system.l2.demandAccesses::switch_cpus.inst         1782                       # number of demand (read+write) accesses (Count)
system.l2.demandAccesses::switch_cpus.data       166279                       # number of demand (read+write) accesses (Count)
system.l2.demandAccesses::total                168061                       # number of demand (read+write) accesses (Count)
system.l2.overallAccesses::switch_cpus.inst         1782                       # number of overall (read+write) accesses (Count)
system.l2.overallAccesses::switch_cpus.data       166279                       # number of overall (read+write) accesses (Count)
system.l2.overallAccesses::total               168061                       # number of overall (read+write) accesses (Count)
system.l2.demandMissRate::switch_cpus.inst     0.272727                       # miss rate for demand accesses (Ratio)
system.l2.demandMissRate::switch_cpus.data     0.775414                       # miss rate for demand accesses (Ratio)
system.l2.demandMissRate::total              0.770083                       # miss rate for demand accesses (Ratio)
system.l2.overallMissRate::switch_cpus.inst     0.272727                       # miss rate for overall accesses (Ratio)
system.l2.overallMissRate::switch_cpus.data     0.775414                       # miss rate for overall accesses (Ratio)
system.l2.overallMissRate::total             0.770083                       # miss rate for overall accesses (Ratio)
system.l2.demandAvgMissLatency::switch_cpus.inst 86341.563786                       # average overall miss latency in ticks ((Tick/Count))
system.l2.demandAvgMissLatency::switch_cpus.data 81274.607360                       # average overall miss latency in ticks ((Tick/Count))
system.l2.demandAvgMissLatency::total    81293.634727                       # average overall miss latency in ticks ((Tick/Count))
system.l2.overallAvgMissLatency::switch_cpus.inst 86341.563786                       # average overall miss latency ((Tick/Count))
system.l2.overallAvgMissLatency::switch_cpus.data 81274.607360                       # average overall miss latency ((Tick/Count))
system.l2.overallAvgMissLatency::total   81293.634727                       # average overall miss latency ((Tick/Count))
system.l2.blockedCycles::no_mshrs                   0                       # number of cycles access was blocked (Cycle)
system.l2.blockedCycles::no_targets                 0                       # number of cycles access was blocked (Cycle)
system.l2.blockedCauses::no_mshrs                   0                       # number of times access was blocked (Count)
system.l2.blockedCauses::no_targets                 0                       # number of times access was blocked (Count)
system.l2.avgBlocked::no_mshrs                    nan                       # average number of cycles each access was blocked ((Cycle/Count))
system.l2.avgBlocked::no_targets                  nan                       # average number of cycles each access was blocked ((Cycle/Count))
system.l2.writebacks::writebacks               127828                       # number of writebacks (Count)
system.l2.writebacks::total                    127828                       # number of writebacks (Count)
system.l2.demandMshrMisses::switch_cpus.inst          486                       # number of demand (read+write) MSHR misses (Count)
system.l2.demandMshrMisses::switch_cpus.data       128935                       # number of demand (read+write) MSHR misses (Count)
system.l2.demandMshrMisses::total              129421                       # number of demand (read+write) MSHR misses (Count)
system.l2.overallMshrMisses::switch_cpus.inst          486                       # number of overall MSHR misses (Count)
system.l2.overallMshrMisses::switch_cpus.data       128935                       # number of overall MSHR misses (Count)
system.l2.overallMshrMisses::total             129421                       # number of overall MSHR misses (Count)
system.l2.demandMshrMissLatency::switch_cpus.inst     37102000                       # number of demand (read+write) MSHR miss ticks (Tick)
system.l2.demandMshrMissLatency::switch_cpus.data   9189791500                       # number of demand (read+write) MSHR miss ticks (Tick)
system.l2.demandMshrMissLatency::total     9226893500                       # number of demand (read+write) MSHR miss ticks (Tick)
system.l2.overallMshrMissLatency::switch_cpus.inst     37102000                       # number of overall MSHR miss ticks (Tick)
system.l2.overallMshrMissLatency::switch_cpus.data   9189791500                       # number of overall MSHR miss ticks (Tick)
system.l2.overallMshrMissLatency::total    9226893500                       # number of overall MSHR miss ticks (Tick)
system.l2.demandMshrMissRate::switch_cpus.inst     0.272727                       # mshr miss ratio for demand accesses (Ratio)
system.l2.demandMshrMissRate::switch_cpus.data     0.775414                       # mshr miss ratio for demand accesses (Ratio)
system.l2.demandMshrMissRate::total          0.770083                       # mshr miss ratio for demand accesses (Ratio)
system.l2.overallMshrMissRate::switch_cpus.inst     0.272727                       # mshr miss ratio for overall accesses (Ratio)
system.l2.overallMshrMissRate::switch_cpus.data     0.775414                       # mshr miss ratio for overall accesses (Ratio)
system.l2.overallMshrMissRate::total         0.770083                       # mshr miss ratio for overall accesses (Ratio)
system.l2.demandAvgMshrMissLatency::switch_cpus.inst 76341.563786                       # average overall mshr miss latency ((Tick/Count))
system.l2.demandAvgMshrMissLatency::switch_cpus.data 71274.607360                       # average overall mshr miss latency ((Tick/Count))
system.l2.demandAvgMshrMissLatency::total 71293.634727                       # average overall mshr miss latency ((Tick/Count))
system.l2.overallAvgMshrMissLatency::switch_cpus.inst 76341.563786                       # average overall mshr miss latency ((Tick/Count))
system.l2.overallAvgMshrMissLatency::switch_cpus.data 71274.607360                       # average overall mshr miss latency ((Tick/Count))
system.l2.overallAvgMshrMissLatency::total 71293.634727                       # average overall mshr miss latency ((Tick/Count))
system.l2.replacements                         131559                       # number of replacements (Count)
system.l2.ReadCleanReq.hits::switch_cpus.inst         1296                       # number of ReadCleanReq hits (Count)
system.l2.ReadCleanReq.hits::total               1296                       # number of ReadCleanReq hits (Count)
system.l2.ReadCleanReq.misses::switch_cpus.inst          486                       # number of ReadCleanReq misses (Count)
system.l2.ReadCleanReq.misses::total              486                       # number of ReadCleanReq misses (Count)
system.l2.ReadCleanReq.missLatency::switch_cpus.inst     41962000                       # number of ReadCleanReq miss ticks (Tick)
system.l2.ReadCleanReq.missLatency::total     41962000                       # number of ReadCleanReq miss ticks (Tick)
system.l2.ReadCleanReq.accesses::switch_cpus.inst         1782                       # number of ReadCleanReq accesses(hits+misses) (Count)
system.l2.ReadCleanReq.accesses::total           1782                       # number of ReadCleanReq accesses(hits+misses) (Count)
system.l2.ReadCleanReq.missRate::switch_cpus.inst     0.272727                       # miss rate for ReadCleanReq accesses (Ratio)
system.l2.ReadCleanReq.missRate::total       0.272727                       # miss rate for ReadCleanReq accesses (Ratio)
system.l2.ReadCleanReq.avgMissLatency::switch_cpus.inst 86341.563786                       # average ReadCleanReq miss latency ((Tick/Count))
system.l2.ReadCleanReq.avgMissLatency::total 86341.563786                       # average ReadCleanReq miss latency ((Tick/Count))
system.l2.ReadCleanReq.mshrMisses::switch_cpus.inst          486                       # number of ReadCleanReq MSHR misses (Count)
system.l2.ReadCleanReq.mshrMisses::total          486                       # number of ReadCleanReq MSHR misses (Count)
system.l2.ReadCleanReq.mshrMissLatency::switch_cpus.inst     37102000                       # number of ReadCleanReq MSHR miss ticks (Tick)
system.l2.ReadCleanReq.mshrMissLatency::total     37102000                       # number of ReadCleanReq MSHR miss ticks (Tick)
system.l2.ReadCleanReq.mshrMissRate::switch_cpus.inst     0.272727                       # mshr miss rate for ReadCleanReq accesses (Ratio)
system.l2.ReadCleanReq.mshrMissRate::total     0.272727                       # mshr miss rate for ReadCleanReq accesses (Ratio)
system.l2.ReadCleanReq.avgMshrMissLatency::switch_cpus.inst 76341.563786                       # average ReadCleanReq mshr miss latency ((Tick/Count))
system.l2.ReadCleanReq.avgMshrMissLatency::total 76341.563786                       # average ReadCleanReq mshr miss latency ((Tick/Count))
system.l2.ReadExReq.hits::switch_cpus.data         4235                       # number of ReadExReq hits (Count)
system.l2.ReadExReq.hits::total                  4235                       # number of ReadExReq hits (Count)
system.l2.ReadExReq.misses::switch_cpus.data       127669                       # number of ReadExReq misses (Count)
system.l2.ReadExReq.misses::total              127669                       # number of ReadExReq misses (Count)
system.l2.ReadExReq.missLatency::switch_cpus.data  10365063000                       # number of ReadExReq miss ticks (Tick)
system.l2.ReadExReq.missLatency::total    10365063000                       # number of ReadExReq miss ticks (Tick)
system.l2.ReadExReq.accesses::switch_cpus.data       131904                       # number of ReadExReq accesses(hits+misses) (Count)
system.l2.ReadExReq.accesses::total            131904                       # number of ReadExReq accesses(hits+misses) (Count)
system.l2.ReadExReq.missRate::switch_cpus.data     0.967893                       # miss rate for ReadExReq accesses (Ratio)
system.l2.ReadExReq.missRate::total          0.967893                       # miss rate for ReadExReq accesses (Ratio)
system.l2.ReadExReq.avgMissLatency::switch_cpus.data 81186.999193                       # average ReadExReq miss latency ((Tick/Count))
system.l2.ReadExReq.avgMissLatency::total 81186.999193                       # average ReadExReq miss latency ((Tick/Count))
system.l2.ReadExReq.mshrMisses::switch_cpus.data       127669                       # number of ReadExReq MSHR misses (Count)
system.l2.ReadExReq.mshrMisses::total          127669                       # number of ReadExReq MSHR misses (Count)
system.l2.ReadExReq.mshrMissLatency::switch_cpus.data   9088373000                       # number of ReadExReq MSHR miss ticks (Tick)
system.l2.ReadExReq.mshrMissLatency::total   9088373000                       # number of ReadExReq MSHR miss ticks (Tick)
system.l2.ReadExReq.mshrMissRate::switch_cpus.data     0.967893                       # mshr miss rate for ReadExReq accesses (Ratio)
system.l2.ReadExReq.mshrMissRate::total      0.967893                       # mshr miss rate for ReadExReq accesses (Ratio)
system.l2.ReadExReq.avgMshrMissLatency::switch_cpus.data 71186.999193                       # average ReadExReq mshr miss latency ((Tick/Count))
system.l2.ReadExReq.avgMshrMissLatency::total 71186.999193                       # average ReadExReq mshr miss latency ((Tick/Count))
system.l2.ReadSharedReq.hits::switch_cpus.data        33109                       # number of ReadSharedReq hits (Count)
system.l2.ReadSharedReq.hits::total             33109                       # number of ReadSharedReq hits (Count)
system.l2.ReadSharedReq.misses::switch_cpus.data         1266                       # number of ReadSharedReq misses (Count)
system.l2.ReadSharedReq.misses::total            1266                       # number of ReadSharedReq misses (Count)
system.l2.ReadSharedReq.missLatency::switch_cpus.data    114078500                       # number of ReadSharedReq miss ticks (Tick)
system.l2.ReadSharedReq.missLatency::total    114078500                       # number of ReadSharedReq miss ticks (Tick)
system.l2.ReadSharedReq.accesses::switch_cpus.data        34375                       # number of ReadSharedReq accesses(hits+misses) (Count)
system.l2.ReadSharedReq.accesses::total         34375                       # number of ReadSharedReq accesses(hits+misses) (Count)
system.l2.ReadSharedReq.missRate::switch_cpus.data     0.036829                       # miss rate for ReadSharedReq accesses (Ratio)
system.l2.ReadSharedReq.missRate::total      0.036829                       # miss rate for ReadSharedReq accesses (Ratio)
system.l2.ReadSharedReq.avgMissLatency::switch_cpus.data 90109.399684                       # average ReadSharedReq miss latency ((Tick/Count))
system.l2.ReadSharedReq.avgMissLatency::total 90109.399684                       # average ReadSharedReq miss latency ((Tick/Count))
system.l2.ReadSharedReq.mshrMisses::switch_cpus.data         1266                       # number of ReadSharedReq MSHR misses (Count)
system.l2.ReadSharedReq.mshrMisses::total         1266                       # number of ReadSharedReq MSHR misses (Count)
system.l2.ReadSharedReq.mshrMissLatency::switch_cpus.data    101418500                       # number of ReadSharedReq MSHR miss ticks (Tick)
system.l2.ReadSharedReq.mshrMissLatency::total    101418500                       # number of ReadSharedReq MSHR miss ticks (Tick)
system.l2.ReadSharedReq.mshrMissRate::switch_cpus.data     0.036829                       # mshr miss rate for ReadSharedReq accesses (Ratio)
system.l2.ReadSharedReq.mshrMissRate::total     0.036829                       # mshr miss rate for ReadSharedReq accesses (Ratio)
system.l2.ReadSharedReq.avgMshrMissLatency::switch_cpus.data 80109.399684                       # average ReadSharedReq mshr miss latency ((Tick/Count))
system.l2.ReadSharedReq.avgMshrMissLatency::total 80109.399684                       # average ReadSharedReq mshr miss latency ((Tick/Count))
system.l2.WritebackClean.hits::writebacks        34495                       # number of WritebackClean hits (Count)
system.l2.WritebackClean.hits::total            34495                       # number of WritebackClean hits (Count)
system.l2.WritebackClean.accesses::writebacks        34495                       # number of WritebackClean accesses(hits+misses) (Count)
system.l2.WritebackClean.accesses::total        34495                       # number of WritebackClean accesses(hits+misses) (Count)
system.l2.WritebackDirty.hits::writebacks       133566                       # number of WritebackDirty hits (Count)
system.l2.WritebackDirty.hits::total           133566                       # number of WritebackDirty hits (Count)
system.l2.WritebackDirty.accesses::writebacks       133566                       # number of WritebackDirty accesses(hits+misses) (Count)
system.l2.WritebackDirty.accesses::total       133566                       # number of WritebackDirty accesses(hits+misses) (Count)
system.l2.power_state.pwrStateResidencyTicks::UNDEFINED 1503209885500                       # Cumulative time (in ticks) in various power states (Tick)
system.l2.tags.tagsInUse                         8192                       # Average ticks per tags in use ((Tick/Count))
system.l2.tags.totalRefs                       359739                       # Total number of references to valid blocks. (Count)
system.l2.tags.sampledRefs                     139751                       # Sample count of references to valid blocks. (Count)
system.l2.tags.avgRefs                       2.574143                       # Average number of references to valid blocks. ((Count/Count))
system.l2.tags.warmupTick                           0                       # The tick when the warmup percentage was hit. (Tick)
system.l2.tags.occupancies::writebacks     186.023476                       # Average occupied blocks per tick, per requestor ((Count/Tick))
system.l2.tags.occupancies::cpu.inst         0.021640                       # Average occupied blocks per tick, per requestor ((Count/Tick))
system.l2.tags.occupancies::cpu.data       107.053123                       # Average occupied blocks per tick, per requestor ((Count/Tick))
system.l2.tags.occupancies::switch_cpus.inst    75.481519                       # Average occupied blocks per tick, per requestor ((Count/Tick))
system.l2.tags.occupancies::switch_cpus.data  7823.420242                       # Average occupied blocks per tick, per requestor ((Count/Tick))
system.l2.tags.avgOccs::writebacks           0.022708                       # Average percentage of cache occupancy ((Ratio/Tick))
system.l2.tags.avgOccs::cpu.inst             0.000003                       # Average percentage of cache occupancy ((Ratio/Tick))
system.l2.tags.avgOccs::cpu.data             0.013068                       # Average percentage of cache occupancy ((Ratio/Tick))
system.l2.tags.avgOccs::switch_cpus.inst     0.009214                       # Average percentage of cache occupancy ((Ratio/Tick))
system.l2.tags.avgOccs::switch_cpus.data     0.955007                       # Average percentage of cache occupancy ((Ratio/Tick))
system.l2.tags.avgOccs::total                       1                       # Average percentage of cache occupancy ((Ratio/Tick))
system.l2.tags.occupanciesTaskId::1024           8192                       # Occupied blocks per task id (Count)
system.l2.tags.ageTaskId_1024::4                 8192                       # Occupied blocks per task id, per block age (Count)
system.l2.tags.ratioOccsTaskId::1024                1                       # Ratio of occupied blocks and all blocks, per task id (Ratio)
system.l2.tags.tagAccesses                    2820535                       # Number of tag accesses (Count)
system.l2.tags.dataAccesses                   2820535                       # Number of data accesses (Count)
system.l2.tags.power_state.pwrStateResidencyTicks::UNDEFINED 1503209885500                       # Cumulative time (in ticks) in various power states (Tick)
system.mem_ctrls.avgPriority_writebacks::samples    127828.00                       # Average QoS priority value for accepted requests (Count)
system.mem_ctrls.avgPriority_switch_cpus.inst::samples       486.00                       # Average QoS priority value for accepted requests (Count)
system.mem_ctrls.avgPriority_switch_cpus.data::samples    128929.00                       # Average QoS priority value for accepted requests (Count)
system.mem_ctrls.priorityMinLatency      0.000000018750                       # per QoS priority minimum request to response latency (Second)
system.mem_ctrls.priorityMaxLatency      0.341056504500                       # per QoS priority maximum request to response latency (Second)
system.mem_ctrls.numReadWriteTurnArounds         7383                       # Number of turnarounds from READ to WRITE (Count)
system.mem_ctrls.numWriteReadTurnArounds         7383                       # Number of turnarounds from WRITE to READ (Count)
system.mem_ctrls.numStayReadState              710200                       # Number of times bus staying in READ state (Count)
system.mem_ctrls.numStayWriteState             120522                       # Number of times bus staying in WRITE state (Count)
system.mem_ctrls.readReqs                      129421                       # Number of read requests accepted (Count)
system.mem_ctrls.writeReqs                     127828                       # Number of write requests accepted (Count)
system.mem_ctrls.readBursts                    129421                       # Number of controller read bursts, including those serviced by the write queue (Count)
system.mem_ctrls.writeBursts                   127828                       # Number of controller write bursts, including those merged in the write queue (Count)
system.mem_ctrls.servicedByWrQ                      6                       # Number of controller read bursts serviced by the write queue (Count)
system.mem_ctrls.mergedWrBursts                     0                       # Number of controller write bursts merged with an existing one (Count)
system.mem_ctrls.neitherReadNorWriteReqs            0                       # Number of requests that are neither read nor write (Count)
system.mem_ctrls.avgRdQLen                       1.00                       # Average read queue length when enqueuing ((Count/Tick))
system.mem_ctrls.avgWrQLen                      25.16                       # Average write queue length when enqueuing ((Count/Tick))
system.mem_ctrls.numRdRetry                         0                       # Number of times read queue was full causing retry (Count)
system.mem_ctrls.numWrRetry                         0                       # Number of times write queue was full causing retry (Count)
system.mem_ctrls.readPktSize::0                     0                       # Read request sizes (log2) (Count)
system.mem_ctrls.readPktSize::1                     0                       # Read request sizes (log2) (Count)
system.mem_ctrls.readPktSize::2                     0                       # Read request sizes (log2) (Count)
system.mem_ctrls.readPktSize::3                     0                       # Read request sizes (log2) (Count)
system.mem_ctrls.readPktSize::4                     0                       # Read request sizes (log2) (Count)
system.mem_ctrls.readPktSize::5                     0                       # Read request sizes (log2) (Count)
system.mem_ctrls.readPktSize::6                129421                       # Read request sizes (log2) (Count)
system.mem_ctrls.writePktSize::0                    0                       # Write request sizes (log2) (Count)
system.mem_ctrls.writePktSize::1                    0                       # Write request sizes (log2) (Count)
system.mem_ctrls.writePktSize::2                    0                       # Write request sizes (log2) (Count)
system.mem_ctrls.writePktSize::3                    0                       # Write request sizes (log2) (Count)
system.mem_ctrls.writePktSize::4                    0                       # Write request sizes (log2) (Count)
system.mem_ctrls.writePktSize::5                    0                       # Write request sizes (log2) (Count)
system.mem_ctrls.writePktSize::6               127828                       # Write request sizes (log2) (Count)
system.mem_ctrls.rdQLenPdf::0                  129415                       # What read queue length does an incoming req see (Count)
system.mem_ctrls.rdQLenPdf::1                       0                       # What read queue length does an incoming req see (Count)
system.mem_ctrls.rdQLenPdf::2                       0                       # What read queue length does an incoming req see (Count)
system.mem_ctrls.rdQLenPdf::3                       0                       # What read queue length does an incoming req see (Count)
system.mem_ctrls.rdQLenPdf::4                       0                       # What read queue length does an incoming req see (Count)
system.mem_ctrls.rdQLenPdf::5                       0                       # What read queue length does an incoming req see (Count)
system.mem_ctrls.rdQLenPdf::6                       0                       # What read queue length does an incoming req see (Count)
system.mem_ctrls.rdQLenPdf::7                       0                       # What read queue length does an incoming req see (Count)
system.mem_ctrls.rdQLenPdf::8                       0                       # What read queue length does an incoming req see (Count)
system.mem_ctrls.rdQLenPdf::9                       0                       # What read queue length does an incoming req see (Count)
system.mem_ctrls.rdQLenPdf::10                      0                       # What read queue length does an incoming req see (Count)
system.mem_ctrls.rdQLenPdf::11                      0                       # What read queue length does an incoming req see (Count)
system.mem_ctrls.rdQLenPdf::12                      0                       # What read queue length does an incoming req see (Count)
system.mem_ctrls.rdQLenPdf::13                      0                       # What read queue length does an incoming req see (Count)
system.mem_ctrls.rdQLenPdf::14                      0                       # What read queue length does an incoming req see (Count)
system.mem_ctrls.rdQLenPdf::15                      0                       # What read queue length does an incoming req see (Count)
system.mem_ctrls.rdQLenPdf::16                      0                       # What read queue length does an incoming req see (Count)
system.mem_ctrls.rdQLenPdf::17                      0                       # What read queue length does an incoming req see (Count)
system.mem_ctrls.rdQLenPdf::18                      0                       # What read queue length does an incoming req see (Count)
system.mem_ctrls.rdQLenPdf::19                      0                       # What read queue length does an incoming req see (Count)
system.mem_ctrls.rdQLenPdf::20                      0                       # What read queue length does an incoming req see (Count)
system.mem_ctrls.rdQLenPdf::21                      0                       # What read queue length does an incoming req see (Count)
system.mem_ctrls.rdQLenPdf::22                      0                       # What read queue length does an incoming req see (Count)
system.mem_ctrls.rdQLenPdf::23                      0                       # What read queue length does an incoming req see (Count)
system.mem_ctrls.rdQLenPdf::24                      0                       # What read queue length does an incoming req see (Count)
system.mem_ctrls.rdQLenPdf::25                      0                       # What read queue length does an incoming req see (Count)
system.mem_ctrls.rdQLenPdf::26                      0                       # What read queue length does an incoming req see (Count)
system.mem_ctrls.rdQLenPdf::27                      0                       # What read queue length does an incoming req see (Count)
system.mem_ctrls.rdQLenPdf::28                      0                       # What read queue length does an incoming req see (Count)
system.mem_ctrls.rdQLenPdf::29                      0                       # What read queue length does an incoming req see (Count)
system.mem_ctrls.rdQLenPdf::30                      0                       # What read queue length does an incoming req see (Count)
system.mem_ctrls.rdQLenPdf::31                      0                       # What read queue length does an incoming req see (Count)
system.mem_ctrls.wrQLenPdf::0                       1                       # What write queue length does an incoming req see (Count)
system.mem_ctrls.wrQLenPdf::1                       1                       # What write queue length does an incoming req see (Count)
system.mem_ctrls.wrQLenPdf::2                       1                       # What write queue length does an incoming req see (Count)
system.mem_ctrls.wrQLenPdf::3                       1                       # What write queue length does an incoming req see (Count)
system.mem_ctrls.wrQLenPdf::4                       1                       # What write queue length does an incoming req see (Count)
system.mem_ctrls.wrQLenPdf::5                       1                       # What write queue length does an incoming req see (Count)
system.mem_ctrls.wrQLenPdf::6                       1                       # What write queue length does an incoming req see (Count)
system.mem_ctrls.wrQLenPdf::7                       1                       # What write queue length does an incoming req see (Count)
system.mem_ctrls.wrQLenPdf::8                       1                       # What write queue length does an incoming req see (Count)
system.mem_ctrls.wrQLenPdf::9                       1                       # What write queue length does an incoming req see (Count)
system.mem_ctrls.wrQLenPdf::10                      1                       # What write queue length does an incoming req see (Count)
system.mem_ctrls.wrQLenPdf::11                      1                       # What write queue length does an incoming req see (Count)
system.mem_ctrls.wrQLenPdf::12                      1                       # What write queue length does an incoming req see (Count)
system.mem_ctrls.wrQLenPdf::13                      1                       # What write queue length does an incoming req see (Count)
system.mem_ctrls.wrQLenPdf::14                      1                       # What write queue length does an incoming req see (Count)
system.mem_ctrls.wrQLenPdf::15                   4690                       # What write queue length does an incoming req see (Count)
system.mem_ctrls.wrQLenPdf::16                   4898                       # What write queue length does an incoming req see (Count)
system.mem_ctrls.wrQLenPdf::17                   7346                       # What write queue length does an incoming req see (Count)
system.mem_ctrls.wrQLenPdf::18                   7403                       # What write queue length does an incoming req see (Count)
system.mem_ctrls.wrQLenPdf::19                   7388                       # What write queue length does an incoming req see (Count)
system.mem_ctrls.wrQLenPdf::20                   7389                       # What write queue length does an incoming req see (Count)
system.mem_ctrls.wrQLenPdf::21                   7388                       # What write queue length does an incoming req see (Count)
system.mem_ctrls.wrQLenPdf::22                   7385                       # What write queue length does an incoming req see (Count)
system.mem_ctrls.wrQLenPdf::23                   7386                       # What write queue length does an incoming req see (Count)
system.mem_ctrls.wrQLenPdf::24                   7389                       # What write queue length does an incoming req see (Count)
system.mem_ctrls.wrQLenPdf::25                   7411                       # What write queue length does an incoming req see (Count)
system.mem_ctrls.wrQLenPdf::26                   7441                       # What write queue length does an incoming req see (Count)
system.mem_ctrls.wrQLenPdf::27                   7383                       # What write queue length does an incoming req see (Count)
system.mem_ctrls.wrQLenPdf::28                   7383                       # What write queue length does an incoming req see (Count)
system.mem_ctrls.wrQLenPdf::29                   7383                       # What write queue length does an incoming req see (Count)
system.mem_ctrls.wrQLenPdf::30                   7383                       # What write queue length does an incoming req see (Count)
system.mem_ctrls.wrQLenPdf::31                   7383                       # What write queue length does an incoming req see (Count)
system.mem_ctrls.wrQLenPdf::32                   7383                       # What write queue length does an incoming req see (Count)
system.mem_ctrls.wrQLenPdf::33                      1                       # What write queue length does an incoming req see (Count)
system.mem_ctrls.wrQLenPdf::34                      0                       # What write queue length does an incoming req see (Count)
system.mem_ctrls.wrQLenPdf::35                      0                       # What write queue length does an incoming req see (Count)
system.mem_ctrls.wrQLenPdf::36                      0                       # What write queue length does an incoming req see (Count)
system.mem_ctrls.wrQLenPdf::37                      0                       # What write queue length does an incoming req see (Count)
system.mem_ctrls.wrQLenPdf::38                      0                       # What write queue length does an incoming req see (Count)
system.mem_ctrls.wrQLenPdf::39                      0                       # What write queue length does an incoming req see (Count)
system.mem_ctrls.wrQLenPdf::40                      0                       # What write queue length does an incoming req see (Count)
system.mem_ctrls.wrQLenPdf::41                      0                       # What write queue length does an incoming req see (Count)
system.mem_ctrls.wrQLenPdf::42                      0                       # What write queue length does an incoming req see (Count)
system.mem_ctrls.wrQLenPdf::43                      0                       # What write queue length does an incoming req see (Count)
system.mem_ctrls.wrQLenPdf::44                      0                       # What write queue length does an incoming req see (Count)
system.mem_ctrls.wrQLenPdf::45                      0                       # What write queue length does an incoming req see (Count)
[...]
system.switch_cpus.numWorkItemsCompleted            0                       # Number of work items this cpu completed (Count)
system.switch_cpus.exec_context.thread_0.numInsts    700000000                       # Number of instructions committed (Count)
system.switch_cpus.exec_context.thread_0.numOps   1439331374                       # Number of ops (including micro ops) committed (Count)
system.switch_cpus.exec_context.thread_0.numIntAluAccesses   1425112271                       # Number of integer alu accesses (Count)
system.switch_cpus.exec_context.thread_0.numFpAluAccesses     14280646                       # Number of float alu accesses (Count)
system.switch_cpus.exec_context.thread_0.numVecAluAccesses            0                       # Number of vector alu accesses (Count)
system.switch_cpus.exec_context.thread_0.numCallsReturns     19685158                       # Number of times a function call or return occured (Count)
system.switch_cpus.exec_context.thread_0.numCondCtrlInsts    140385163                       # Number of instructions that are conditional controls (Count)
system.switch_cpus.exec_context.thread_0.numIntInsts   1425112271                       # Number of integer instructions (Count)
system.switch_cpus.exec_context.thread_0.numFpInsts     14280646                       # Number of float instructions (Count)
system.switch_cpus.exec_context.thread_0.numVecInsts            0                       # Number of vector instructions (Count)
system.switch_cpus.exec_context.thread_0.numIntRegReads   1780708215                       # Number of times the integer registers were read (Count)
system.switch_cpus.exec_context.thread_0.numIntRegWrites   1029394995                       # Number of times the integer registers were written (Count)
system.switch_cpus.exec_context.thread_0.numFpRegReads     18845783                       # Number of times the floating registers were read (Count)
system.switch_cpus.exec_context.thread_0.numFpRegWrites     11104496                       # Number of times the floating registers were written (Count)
system.switch_cpus.exec_context.thread_0.numVecRegReads            0                       # Number of times the vector registers were read (Count)
system.switch_cpus.exec_context.thread_0.numVecRegWrites            0                       # Number of times the vector registers were written (Count)
system.switch_cpus.exec_context.thread_0.numVecPredRegReads            0                       # Number of times the predicate registers were read (Count)
system.switch_cpus.exec_context.thread_0.numVecPredRegWrites            0                       # Number of times the predicate registers were written (Count)
system.switch_cpus.exec_context.thread_0.numCCRegReads    946609107                       # Number of times the CC registers were read (Count)
system.switch_cpus.exec_context.thread_0.numCCRegWrites    435028331                       # Number of times the CC registers were written (Count)
system.switch_cpus.exec_context.thread_0.numMiscRegReads    654711154                       # Number of times the Misc registers were read (Count)
system.switch_cpus.exec_context.thread_0.numMiscRegWrites           54                       # Number of times the Misc registers were written (Count)
system.switch_cpus.exec_context.thread_0.numMemRefs    302518226                       # Number of memory refs (Count)
system.switch_cpus.exec_context.thread_0.numLoadInsts    194708056                       # Number of load instructions (Count)
system.switch_cpus.exec_context.thread_0.numStoreInsts    107810170                       # Number of store instructions (Count)
system.switch_cpus.exec_context.thread_0.numIdleCycles            0                       # Number of idle cycles (Cycle)
system.switch_cpus.exec_context.thread_0.numBusyCycles   2546124825                       # Number of busy cycles (Cycle)
system.switch_cpus.exec_context.thread_0.notIdleFraction            1                       # Percentage of non-idle cycles (Ratio)
system.switch_cpus.exec_context.thread_0.idleFraction            0                       # Percentage of idle cycles (Ratio)
system.switch_cpus.exec_context.thread_0.numBranches    177181811                       # Number of branches fetched (Count)
system.switch_cpus.exec_context.thread_0.statExecutedInstType::No_OpClass      3336996      0.23%      0.23% # Class of executed instruction. (Count)
system.switch_cpus.exec_context.thread_0.statExecutedInstType::IntAlu   1116749265     77.59%     77.82% # Class of executed instruction. (Count)
system.switch_cpus.exec_context.thread_0.statExecutedInstType::IntMult       675604      0.05%     77.87% # Class of executed instruction. (Count)
system.switch_cpus.exec_context.thread_0.statExecutedInstType::IntDiv      7058053      0.49%     78.36% # Class of executed instruction. (Count)
system.switch_cpus.exec_context.thread_0.statExecutedInstType::FloatAdd      1404330      0.10%     78.45% # Class of executed instruction. (Count)
system.switch_cpus.exec_context.thread_0.statExecutedInstType::FloatCmp            0      0.00%     78.45% # Class of executed instruction. (Count)
system.switch_cpus.exec_context.thread_0.statExecutedInstType::FloatCvt           96      0.00%     78.45% # Class of executed instruction. (Count)
system.switch_cpus.exec_context.thread_0.statExecutedInstType::FloatMult            0      0.00%     78.45% # Class of executed instruction. (Count)
system.switch_cpus.exec_context.thread_0.statExecutedInstType::FloatMultAcc            0      0.00%     78.45% # Class of executed instruction. (Count)
system.switch_cpus.exec_context.thread_0.statExecutedInstType::FloatDiv            0      0.00%     78.45% # Class of executed instruction. (Count)
system.switch_cpus.exec_context.thread_0.statExecutedInstType::FloatMisc            0      0.00%     78.45% # Class of executed instruction. (Count)
system.switch_cpus.exec_context.thread_0.statExecutedInstType::FloatSqrt            0      0.00%     78.45% # Class of executed instruction. (Count)
system.switch_cpus.exec_context.thread_0.statExecutedInstType::SimdAdd       175114      0.01%     78.47% # Class of executed instruction. (Count)
system.switch_cpus.exec_context.thread_0.statExecutedInstType::SimdAddAcc            0      0.00%     78.47% # Class of executed instruction. (Count)
system.switch_cpus.exec_context.thread_0.statExecutedInstType::SimdAlu      1167892      0.08%     78.55% # Class of executed instruction. (Count)
system.switch_cpus.exec_context.thread_0.statExecutedInstType::SimdCmp            0      0.00%     78.55% # Class of executed instruction. (Count)
system.switch_cpus.exec_context.thread_0.statExecutedInstType::SimdCvt      1610800      0.11%     78.66% # Class of executed instruction. (Count)
system.switch_cpus.exec_context.thread_0.statExecutedInstType::SimdMisc      2054779      0.14%     78.80% # Class of executed instruction. (Count)
system.switch_cpus.exec_context.thread_0.statExecutedInstType::SimdMult            0      0.00%     78.80% # Class of executed instruction. (Count)
system.switch_cpus.exec_context.thread_0.statExecutedInstType::SimdMultAcc            0      0.00%     78.80% # Class of executed instruction. (Count)
system.switch_cpus.exec_context.thread_0.statExecutedInstType::SimdShift        65266      0.00%     78.81% # Class of executed instruction. (Count)
system.switch_cpus.exec_context.thread_0.statExecutedInstType::SimdShiftAcc            0      0.00%     78.81% # Class of executed instruction. (Count)
system.switch_cpus.exec_context.thread_0.statExecutedInstType::SimdDiv            0      0.00%     78.81% # Class of executed instruction. (Count)
system.switch_cpus.exec_context.thread_0.statExecutedInstType::SimdSqrt            0      0.00%     78.81% # Class of executed instruction. (Count)
system.switch_cpus.exec_context.thread_0.statExecutedInstType::SimdFloatAdd      1144650      0.08%     78.89% # Class of executed instruction. (Count)
system.switch_cpus.exec_context.thread_0.statExecutedInstType::SimdFloatAlu            0      0.00%     78.89% # Class of executed instruction. (Count)
system.switch_cpus.exec_context.thread_0.statExecutedInstType::SimdFloatCmp            0      0.00%     78.89% # Class of executed instruction. (Count)
system.switch_cpus.exec_context.thread_0.statExecutedInstType::SimdFloatCvt       457902      0.03%     78.92% # Class of executed instruction. (Count)
system.switch_cpus.exec_context.thread_0.statExecutedInstType::SimdFloatDiv            0      0.00%     78.92% # Class of executed instruction. (Count)
system.switch_cpus.exec_context.thread_0.statExecutedInstType::SimdFloatMisc            0      0.00%     78.92% # Class of executed instruction. (Count)
system.switch_cpus.exec_context.thread_0.statExecutedInstType::SimdFloatMult       686790      0.05%     78.97% # Class of executed instruction. (Count)
system.switch_cpus.exec_context.thread_0.statExecutedInstType::SimdFloatMultAcc            0      0.00%     78.97% # Class of executed instruction. (Count)
system.switch_cpus.exec_context.thread_0.statExecutedInstType::SimdFloatSqrt       228930      0.02%     78.98% # Class of executed instruction. (Count)
system.switch_cpus.exec_context.thread_0.statExecutedInstType::SimdReduceAdd            0      0.00%     78.98% # Class of executed instruction. (Count)
system.switch_cpus.exec_context.thread_0.statExecutedInstType::SimdReduceAlu            0      0.00%     78.98% # Class of executed instruction. (Count)
system.switch_cpus.exec_context.thread_0.statExecutedInstType::SimdReduceCmp            0      0.00%     78.98% # Class of executed instruction. (Count)
system.switch_cpus.exec_context.thread_0.statExecutedInstType::SimdFloatReduceAdd            0      0.00%     78.98% # Class of executed instruction. (Count)
system.switch_cpus.exec_context.thread_0.statExecutedInstType::SimdFloatReduceCmp            0      0.00%     78.98% # Class of executed instruction. (Count)
system.switch_cpus.exec_context.thread_0.statExecutedInstType::SimdAes            0      0.00%     78.98% # Class of executed instruction. (Count)
system.switch_cpus.exec_context.thread_0.statExecutedInstType::SimdAesMix            0      0.00%     78.98% # Class of executed instruction. (Count)
system.switch_cpus.exec_context.thread_0.statExecutedInstType::SimdSha1Hash            0      0.00%     78.98% # Class of executed instruction. (Count)
system.switch_cpus.exec_context.thread_0.statExecutedInstType::SimdSha1Hash2            0      0.00%     78.98% # Class of executed instruction. (Count)
system.switch_cpus.exec_context.thread_0.statExecutedInstType::SimdSha256Hash            0      0.00%     78.98% # Class of executed instruction. (Count)
system.switch_cpus.exec_context.thread_0.statExecutedInstType::SimdSha256Hash2            0      0.00%     78.98% # Class of executed instruction. (Count)
system.switch_cpus.exec_context.thread_0.statExecutedInstType::SimdShaSigma2            0      0.00%     78.98% # Class of executed instruction. (Count)
system.switch_cpus.exec_context.thread_0.statExecutedInstType::SimdShaSigma3            0      0.00%     78.98% # Class of executed instruction. (Count)
system.switch_cpus.exec_context.thread_0.statExecutedInstType::SimdPredAlu            0      0.00%     78.98% # Class of executed instruction. (Count)
system.switch_cpus.exec_context.thread_0.statExecutedInstType::MemRead    190762861     13.25%     92.24% # Class of executed instruction. (Count)
system.switch_cpus.exec_context.thread_0.statExecutedInstType::MemWrite    106555760      7.40%     99.64% # Class of executed instruction. (Count)
system.switch_cpus.exec_context.thread_0.statExecutedInstType::FloatMemRead      3945195      0.27%     99.91% # Class of executed instruction. (Count)
system.switch_cpus.exec_context.thread_0.statExecutedInstType::FloatMemWrite      1254410      0.09%    100.00% # Class of executed instruction. (Count)
system.switch_cpus.exec_context.thread_0.statExecutedInstType::IprAccess            0      0.00%    100.00% # Class of executed instruction. (Count)
system.switch_cpus.exec_context.thread_0.statExecutedInstType::InstPrefetch            0      0.00%    100.00% # Class of executed instruction. (Count)
system.switch_cpus.exec_context.thread_0.statExecutedInstType::total   1439334693                       # Class of executed instruction. (Count)
system.switch_cpus.mmu.dtb.rdAccesses       194713289                       # TLB accesses on read requests (Count)
system.switch_cpus.mmu.dtb.wrAccesses       107835606                       # TLB accesses on write requests (Count)
system.switch_cpus.mmu.dtb.rdMisses               220                       # TLB misses on read requests (Count)
system.switch_cpus.mmu.dtb.wrMisses              4085                       # TLB misses on write requests (Count)
system.switch_cpus.mmu.dtb.walker.power_state.pwrStateResidencyTicks::UNDEFINED 1503209885500                       # Cumulative time (in ticks) in various power states (Tick)
system.switch_cpus.mmu.itb.rdAccesses               0                       # TLB accesses on read requests (Count)
system.switch_cpus.mmu.itb.wrAccesses       959351938                       # TLB accesses on write requests (Count)
system.switch_cpus.mmu.itb.rdMisses                 0                       # TLB misses on read requests (Count)
system.switch_cpus.mmu.itb.wrMisses               131                       # TLB misses on write requests (Count)
system.switch_cpus.mmu.itb.walker.power_state.pwrStateResidencyTicks::UNDEFINED 1503209885500                       # Cumulative time (in ticks) in various power states (Tick)
system.switch_cpus.power_state.pwrStateResidencyTicks::OFF 1503209885500                       # Cumulative time (in ticks) in various power states (Tick)
system.switch_cpus.thread_0.numInsts                0                       # Number of Instructions committed (Count)
system.switch_cpus.thread_0.numOps                  0                       # Number of Ops committed (Count)
system.switch_cpus.thread_0.numMemRefs              0                       # Number of Memory References (Count)
system.tol2bus.transDist::ReadResp              36157                       # Transaction distribution (Count)
system.tol2bus.transDist::WritebackDirty       261394                       # Transaction distribution (Count)
system.tol2bus.transDist::WritebackClean        34495                       # Transaction distribution (Count)
system.tol2bus.transDist::CleanEvict             3731                       # Transaction distribution (Count)
system.tol2bus.transDist::ReadExReq            131904                       # Transaction distribution (Count)
system.tol2bus.transDist::ReadExResp           131904                       # Transaction distribution (Count)
system.tol2bus.transDist::ReadCleanReq           1782                       # Transaction distribution (Count)
system.tol2bus.transDist::ReadSharedReq         34375                       # Transaction distribution (Count)
system.tol2bus.pktCount_system.cpu.icache.mem_side_port::system.l2.cpu_side_port         5346                       # Packet count per connected requestor and responder (Count)
system.tol2bus.pktCount_system.cpu.dcache.mem_side_port::system.l2.cpu_side_port       498837                       # Packet count per connected requestor and responder (Count)
system.tol2bus.pktCount::total                 504183                       # Packet count per connected requestor and responder (Count)
system.tol2bus.pktSize_system.cpu.icache.mem_side_port::system.l2.cpu_side_port       228096                       # Cumulative packet size per connected requestor and responder (Byte)
system.tol2bus.pktSize_system.cpu.dcache.mem_side_port::system.l2.cpu_side_port     21283712                       # Cumulative packet size per connected requestor and responder (Byte)
system.tol2bus.pktSize::total                21511808                       # Cumulative packet size per connected requestor and responder (Byte)
system.tol2bus.snoops                          131559                       # Total snoops (Count)
system.tol2bus.snoopTraffic                   8180992                       # Total snoop traffic (Byte)
system.tol2bus.snoopFanout::samples            299620                       # Request fanout histogram (Count)
system.tol2bus.snoopFanout::mean             0.006962                       # Request fanout histogram (Count)
system.tol2bus.snoopFanout::stdev            0.083149                       # Request fanout histogram (Count)
system.tol2bus.snoopFanout::underflows              0      0.00%      0.00% # Request fanout histogram (Count)
system.tol2bus.snoopFanout::0                  297534     99.30%     99.30% # Request fanout histogram (Count)
system.tol2bus.snoopFanout::1                    2086      0.70%    100.00% # Request fanout histogram (Count)
system.tol2bus.snoopFanout::2                       0      0.00%    100.00% # Request fanout histogram (Count)
system.tol2bus.snoopFanout::3                       0      0.00%    100.00% # Request fanout histogram (Count)
system.tol2bus.snoopFanout::4                       0      0.00%    100.00% # Request fanout histogram (Count)
system.tol2bus.snoopFanout::overflows               0      0.00%    100.00% # Request fanout histogram (Count)
system.tol2bus.snoopFanout::min_value               0                       # Request fanout histogram (Count)
system.tol2bus.snoopFanout::max_value               1                       # Request fanout histogram (Count)
system.tol2bus.snoopFanout::total              299620                       # Request fanout histogram (Count)
system.tol2bus.power_state.pwrStateResidencyTicks::UNDEFINED 1503209885500                       # Cumulative time (in ticks) in various power states (Tick)
system.tol2bus.reqLayer0.occupancy          336122000                       # Layer occupancy (ticks) (Tick)
system.tol2bus.reqLayer0.utilization              0.0                       # Layer utilization (Ratio)
system.tol2bus.respLayer0.occupancy           2673000                       # Layer occupancy (ticks) (Tick)
system.tol2bus.respLayer0.utilization             0.0                       # Layer utilization (Ratio)
system.tol2bus.respLayer1.occupancy         249418500                       # Layer occupancy (ticks) (Tick)
system.tol2bus.respLayer1.utilization             0.0                       # Layer utilization (Ratio)
system.tol2bus.snoop_filter.totRequests        336122                       # Total number of requests made to the snoop filter. (Count)
system.tol2bus.snoop_filter.hitSingleRequests       168061                       # Number of requests hitting in the snoop filter with a single holder of the requested data. (Count)
system.tol2bus.snoop_filter.hitMultiRequests            0                       # Number of requests hitting in the snoop filter with multiple (>1) holders of the requested data. (Count)
system.tol2bus.snoop_filter.totSnoops            2086                       # Total number of snoops made to the snoop filter. (Count)
system.tol2bus.snoop_filter.hitSingleSnoops         2086                       # Number of snoops hitting in the snoop filter with a single holder of the requested data. (Count)
system.tol2bus.snoop_filter.hitMultiSnoops            0                       # Number of snoops hitting in the snoop filter with multiple (>1) holders of the requested data. (Count)
system.voltage_domain.voltage                       1                       # Voltage in Volts (Volt)
system.workload.inst.arm                            0                       # number of arm instructions executed (Count)
system.workload.inst.quiesce                        0                       # number of quiesce instructions executed (Count)

---------- End Simulation Statistics   ----------
