
---------- Begin Simulation Statistics ----------
simSeconds                                   1.101599                       # Number of seconds simulated (Second)
simTicks                                 1101598869000                       # Number of ticks simulated (Tick)
finalTick                                1285649106500                       # Number of ticks from beginning of simulation (restored from checkpoints and never reset) (Tick)
simFreq                                  1000000000000                       # The number of ticks per simulated second ((Tick/Second))
hostSeconds                                    453.18                       # Real time elapsed on the host (Second)
hostTickRate                               2430796262                       # The number of ticks simulated per host second (ticks/s) ((Tick/Second))
hostMemory                                    9008704                       # Number of bytes of host memory used (Byte)
simInsts                                    900000001                       # Number of instructions simulated (Count)
simOps                                     1340612193                       # Number of ops (including micro ops) simulated (Count)
hostInstRate                                  1985946                       # Simulator instruction rate (inst/s) ((Count/Second))
hostOpRate                                    2958204                       # Simulator op (including micro ops) rate (op/s) ((Count/Second))
system.clk_domain.clock                          1000                       # Clock period in ticks (Tick)
system.cpu.numCycles                                0                       # Number of cpu cycles simulated (Cycle)
system.cpu.numWorkItemsStarted                      0                       # Number of work items this cpu started (Count)
system.cpu.numWorkItemsCompleted                    0                       # Number of work items this cpu completed (Count)
system.cpu.dcache.demandHits::switch_cpus.data    141192216                       # number of demand (read+write) hits (Count)
system.cpu.dcache.demandHits::total         141192216                       # number of demand (read+write) hits (Count)
system.cpu.dcache.overallHits::switch_cpus.data    141192216                       # number of overall hits (Count)
system.cpu.dcache.overallHits::total        141192216                       # number of overall hits (Count)
system.cpu.dcache.demandMisses::switch_cpus.data       678886                       # number of demand (read+write) misses (Count)
system.cpu.dcache.demandMisses::total          678886                       # number of demand (read+write) misses (Count)
system.cpu.dcache.overallMisses::switch_cpus.data       678886                       # number of overall misses (Count)
system.cpu.dcache.overallMisses::total         678886                       # number of overall misses (Count)
system.cpu.dcache.demandMissLatency::switch_cpus.data  28198733000                       # number of demand (read+write) miss ticks (Tick)
system.cpu.dcache.demandMissLatency::total  28198733000                       # number of demand (read+write) miss ticks (Tick)
system.cpu.dcache.overallMissLatency::switch_cpus.data  28198733000                       # number of overall miss ticks (Tick)
system.cpu.dcache.overallMissLatency::total  28198733000                       # number of overall miss ticks (Tick)
system.cpu.dcache.demandAccesses::switch_cpus.data    141871102                       # number of demand (read+write) accesses (Count)
system.cpu.dcache.demandAccesses::total     141871102                       # number of demand (read+write) accesses (Count)
system.cpu.dcache.overallAccesses::switch_cpus.data    141871102                       # number of overall (read+write) accesses (Count)
system.cpu.dcache.overallAccesses::total    141871102                       # number of overall (read+write) accesses (Count)
system.cpu.dcache.demandMissRate::switch_cpus.data     0.004785                       # miss rate for demand accesses (Ratio)
system.cpu.dcache.demandMissRate::total      0.004785                       # miss rate for demand accesses (Ratio)
system.cpu.dcache.overallMissRate::switch_cpus.data     0.004785                       # miss rate for overall accesses (Ratio)
system.cpu.dcache.overallMissRate::total     0.004785                       # miss rate for overall accesses (Ratio)
system.cpu.dcache.demandAvgMissLatency::switch_cpus.data 41536.772006                       # average overall miss latency in ticks ((Tick/Count))
system.cpu.dcache.demandAvgMissLatency::total 41536.772006                       # average overall miss latency in ticks ((Tick/Count))
system.cpu.dcache.overallAvgMissLatency::switch_cpus.data 41536.772006                       # average overall miss latency ((Tick/Count))
system.cpu.dcache.overallAvgMissLatency::total 41536.772006                       # average overall miss latency ((Tick/Count))
system.cpu.dcache.blockedCycles::no_mshrs            0                       # number of cycles access was blocked (Cycle)
system.cpu.dcache.blockedCycles::no_targets            0                       # number of cycles access was blocked (Cycle)
system.cpu.dcache.blockedCauses::no_mshrs            0                       # number of times access was blocked (Count)
system.cpu.dcache.blockedCauses::no_targets            0                       # number of times access was blocked (Count)
system.cpu.dcache.avgBlocked::no_mshrs            nan                       # average number of cycles each access was blocked ((Cycle/Count))
system.cpu.dcache.avgBlocked::no_targets          nan                       # average number of cycles each access was blocked ((Cycle/Count))
system.cpu.dcache.writebacks::writebacks       678886                       # number of writebacks (Count)
system.cpu.dcache.writebacks::total            678886                       # number of writebacks (Count)
system.cpu.dcache.demandMshrMisses::switch_cpus.data       678886                       # number of demand (read+write) MSHR misses (Count)
system.cpu.dcache.demandMshrMisses::total       678886                       # number of demand (read+write) MSHR misses (Count)
system.cpu.dcache.overallMshrMisses::switch_cpus.data       678886                       # number of overall MSHR misses (Count)
system.cpu.dcache.overallMshrMisses::total       678886                       # number of overall MSHR misses (Count)
system.cpu.dcache.demandMshrMissLatency::switch_cpus.data  27519847000                       # number of demand (read+write) MSHR miss ticks (Tick)
system.cpu.dcache.demandMshrMissLatency::total  27519847000                       # number of demand (read+write) MSHR miss ticks (Tick)
system.cpu.dcache.overallMshrMissLatency::switch_cpus.data  27519847000                       # number of overall MSHR miss ticks (Tick)
system.cpu.dcache.overallMshrMissLatency::total  27519847000                       # number of overall MSHR miss ticks (Tick)
system.cpu.dcache.demandMshrMissRate::switch_cpus.data     0.004785                       # mshr miss ratio for demand accesses (Ratio)
system.cpu.dcache.demandMshrMissRate::total     0.004785                       # mshr miss ratio for demand accesses (Ratio)
system.cpu.dcache.overallMshrMissRate::switch_cpus.data     0.004785                       # mshr miss ratio for overall accesses (Ratio)
system.cpu.dcache.overallMshrMissRate::total     0.004785                       # mshr miss ratio for overall accesses (Ratio)
system.cpu.dcache.demandAvgMshrMissLatency::switch_cpus.data 40536.772006                       # average overall mshr miss latency ((Tick/Count))
system.cpu.dcache.demandAvgMshrMissLatency::total 40536.772006                       # average overall mshr miss latency ((Tick/Count))
system.cpu.dcache.overallAvgMshrMissLatency::switch_cpus.data 40536.772006                       # average overall mshr miss latency ((Tick/Count))
system.cpu.dcache.overallAvgMshrMissLatency::total 40536.772006                       # average overall mshr miss latency ((Tick/Count))
system.cpu.dcache.replacements                 678886                       # number of replacements (Count)
system.cpu.dcache.ReadReq.hits::switch_cpus.data     98504619                       # number of ReadReq hits (Count)
system.cpu.dcache.ReadReq.hits::total        98504619                       # number of ReadReq hits (Count)
system.cpu.dcache.ReadReq.misses::switch_cpus.data       410242                       # number of ReadReq misses (Count)
system.cpu.dcache.ReadReq.misses::total        410242                       # number of ReadReq misses (Count)
system.cpu.dcache.ReadReq.missLatency::switch_cpus.data  13313586500                       # number of ReadReq miss ticks (Tick)
system.cpu.dcache.ReadReq.missLatency::total  13313586500                       # number of ReadReq miss ticks (Tick)
system.cpu.dcache.ReadReq.accesses::switch_cpus.data     98914861                       # number of ReadReq accesses(hits+misses) (Count)
system.cpu.dcache.ReadReq.accesses::total     98914861                       # number of ReadReq accesses(hits+misses) (Count)
system.cpu.dcache.ReadReq.missRate::switch_cpus.data     0.004147                       # miss rate for ReadReq accesses (Ratio)
system.cpu.dcache.ReadReq.missRate::total     0.004147                       # miss rate for ReadReq accesses (Ratio)
system.cpu.dcache.ReadReq.avgMissLatency::switch_cpus.data 32453.007006                       # average ReadReq miss latency ((Tick/Count))
system.cpu.dcache.ReadReq.avgMissLatency::total 32453.007006                       # average ReadReq miss latency ((Tick/Count))
system.cpu.dcache.ReadReq.mshrMisses::switch_cpus.data       410242                       # number of ReadReq MSHR misses (Count)
system.cpu.dcache.ReadReq.mshrMisses::total       410242                       # number of ReadReq MSHR misses (Count)
system.cpu.dcache.ReadReq.mshrMissLatency::switch_cpus.data  12903344500                       # number of ReadReq MSHR miss ticks (Tick)
system.cpu.dcache.ReadReq.mshrMissLatency::total  12903344500                       # number of ReadReq MSHR miss ticks (Tick)
system.cpu.dcache.ReadReq.mshrMissRate::switch_cpus.data     0.004147                       # mshr miss rate for ReadReq accesses (Ratio)
system.cpu.dcache.ReadReq.mshrMissRate::total     0.004147                       # mshr miss rate for ReadReq accesses (Ratio)
system.cpu.dcache.ReadReq.avgMshrMissLatency::switch_cpus.data 31453.007006                       # average ReadReq mshr miss latency ((Tick/Count))
system.cpu.dcache.ReadReq.avgMshrMissLatency::total 31453.007006                       # average ReadReq mshr miss latency ((Tick/Count))
system.cpu.dcache.WriteReq.hits::switch_cpus.data     42687597                       # number of WriteReq hits (Count)
system.cpu.dcache.WriteReq.hits::total       42687597                       # number of WriteReq hits (Count)
system.cpu.dcache.WriteReq.misses::switch_cpus.data       268644                       # number of WriteReq misses (Count)
system.cpu.dcache.WriteReq.misses::total       268644                       # number of WriteReq misses (Count)
system.cpu.dcache.WriteReq.missLatency::switch_cpus.data  14885146500                       # number of WriteReq miss ticks (Tick)
system.cpu.dcache.WriteReq.missLatency::total  14885146500                       # number of WriteReq miss ticks (Tick)
system.cpu.dcache.WriteReq.accesses::switch_cpus.data     42956241                       # number of WriteReq accesses(hits+misses) (Count)
system.cpu.dcache.WriteReq.accesses::total     42956241                       # number of WriteReq accesses(hits+misses) (Count)
system.cpu.dcache.WriteReq.missRate::switch_cpus.data     0.006254                       # miss rate for WriteReq accesses (Ratio)
system.cpu.dcache.WriteReq.missRate::total     0.006254                       # miss rate for WriteReq accesses (Ratio)
system.cpu.dcache.WriteReq.avgMissLatency::switch_cpus.data 55408.445750                       # average WriteReq miss latency ((Tick/Count))
system.cpu.dcache.WriteReq.avgMissLatency::total 55408.445750                       # average WriteReq miss latency ((Tick/Count))
system.cpu.dcache.WriteReq.mshrMisses::switch_cpus.data       268644                       # number of WriteReq MSHR misses (Count)
system.cpu.dcache.WriteReq.mshrMisses::total       268644                       # number of WriteReq MSHR misses (Count)
system.cpu.dcache.WriteReq.mshrMissLatency::switch_cpus.data  14616502500                       # number of WriteReq MSHR miss ticks (Tick)
system.cpu.dcache.WriteReq.mshrMissLatency::total  14616502500                       # number of WriteReq MSHR miss ticks (Tick)
system.cpu.dcache.WriteReq.mshrMissRate::switch_cpus.data     0.006254                       # mshr miss rate for WriteReq accesses (Ratio)
system.cpu.dcache.WriteReq.mshrMissRate::total     0.006254                       # mshr miss rate for WriteReq accesses (Ratio)
system.cpu.dcache.WriteReq.avgMshrMissLatency::switch_cpus.data 54408.445750                       # average WriteReq mshr miss latency ((Tick/Count))
system.cpu.dcache.WriteReq.avgMshrMissLatency::total 54408.445750                       # average WriteReq mshr miss latency ((Tick/Count))
system.cpu.dcache.power_state.pwrStateResidencyTicks::UNDEFINED 1285649106500                       # Cumulative time (in ticks) in various power states (Tick)
system.cpu.dcache.tags.tagsInUse                  384                       # Average ticks per tags in use ((Tick/Count))
system.cpu.dcache.tags.totalRefs            141944972                       # Total number of references to valid blocks. (Count)
system.cpu.dcache.tags.sampledRefs             679270                       # Sample count of references to valid blocks. (Count)
system.cpu.dcache.tags.avgRefs             208.966938                       # Average number of references to valid blocks. ((Count/Count))
system.cpu.dcache.tags.warmupTick                   0                       # The tick when the warmup percentage was hit. (Tick)
system.cpu.dcache.tags.occupancies::cpu.data     0.266919                       # Average occupied blocks per tick, per requestor ((Count/Tick))
system.cpu.dcache.tags.occupancies::switch_cpus.data   383.733081                       # Average occupied blocks per tick, per requestor ((Count/Tick))
system.cpu.dcache.tags.avgOccs::cpu.data     0.000695                       # Average percentage of cache occupancy ((Ratio/Tick))
system.cpu.dcache.tags.avgOccs::switch_cpus.data     0.999305                       # Average percentage of cache occupancy ((Ratio/Tick))
system.cpu.dcache.tags.avgOccs::total               1                       # Average percentage of cache occupancy ((Ratio/Tick))
system.cpu.dcache.tags.occupanciesTaskId::1024          384                       # Occupied blocks per task id (Count)
system.cpu.dcache.tags.ageTaskId_1024::0            2                       # Occupied blocks per task id, per block age (Count)
system.cpu.dcache.tags.ageTaskId_1024::1           12                       # Occupied blocks per task id, per block age (Count)
system.cpu.dcache.tags.ageTaskId_1024::2          369                       # Occupied blocks per task id, per block age (Count)
system.cpu.dcache.tags.ageTaskId_1024::3            1                       # Occupied blocks per task id, per block age (Count)
system.cpu.dcache.tags.ratioOccsTaskId::1024            1                       # Ratio of occupied blocks and all blocks, per task id (Ratio)
system.cpu.dcache.tags.tagAccesses          851905498                       # Number of tag accesses (Count)
system.cpu.dcache.tags.dataAccesses         851905498                       # Number of data accesses (Count)
system.cpu.dcache.tags.power_state.pwrStateResidencyTicks::UNDEFINED 1285649106500                       # Cumulative time (in ticks) in various power states (Tick)
system.cpu.dtb_walker_cache.blockedCycles::no_mshrs            0                       # number of cycles access was blocked (Cycle)
system.cpu.dtb_walker_cache.blockedCycles::no_targets            0                       # number of cycles access was blocked (Cycle)
system.cpu.dtb_walker_cache.blockedCauses::no_mshrs            0                       # number of times access was blocked (Count)
system.cpu.dtb_walker_cache.blockedCauses::no_targets            0                       # number of times access was blocked (Count)
system.cpu.dtb_walker_cache.avgBlocked::no_mshrs          nan                       # average number of cycles each access was blocked ((Cycle/Count))
system.cpu.dtb_walker_cache.avgBlocked::no_targets          nan                       # average number of cycles each access was blocked ((Cycle/Count))
system.cpu.dtb_walker_cache.replacements            0                       # number of replacements (Count)
system.cpu.dtb_walker_cache.power_state.pwrStateResidencyTicks::UNDEFINED 1285649106500                       # Cumulative time (in ticks) in various power states (Tick)
system.cpu.dtb_walker_cache.tags.tagsInUse            0                       # Average ticks per tags in use ((Tick/Count))
system.cpu.dtb_walker_cache.tags.totalRefs            0                       # Total number of references to valid blocks. (Count)
system.cpu.dtb_walker_cache.tags.sampledRefs            0                       # Sample count of references to valid blocks. (Count)
system.cpu.dtb_walker_cache.tags.avgRefs          nan                       # Average number of references to valid blocks. ((Count/Count))
system.cpu.dtb_walker_cache.tags.warmupTick            0                       # The tick when the warmup percentage was hit. (Tick)
system.cpu.dtb_walker_cache.tags.tagAccesses            0                       # Number of tag accesses (Count)
system.cpu.dtb_walker_cache.tags.dataAccesses            0                       # Number of data accesses (Count)
system.cpu.dtb_walker_cache.tags.power_state.pwrStateResidencyTicks::UNDEFINED 1285649106500                       # Cumulative time (in ticks) in various power states (Tick)
system.cpu.exec_context.thread_0.numInsts            0                       # Number of instructions committed (Count)
system.cpu.exec_context.thread_0.numOps             0                       # Number of ops (including micro ops) committed (Count)
system.cpu.exec_context.thread_0.numIntAluAccesses            0                       # Number of integer alu accesses (Count)
system.cpu.exec_context.thread_0.numFpAluAccesses            0                       # Number of float alu accesses (Count)
system.cpu.exec_context.thread_0.numVecAluAccesses            0                       # Number of vector alu accesses (Count)
system.cpu.exec_context.thread_0.numCallsReturns            0                       # Number of times a function call or return occured (Count)
system.cpu.exec_context.thread_0.numCondCtrlInsts            0                       # Number of instructions that are conditional controls (Count)
system.cpu.exec_context.thread_0.numIntInsts            0                       # Number of integer instructions (Count)
system.cpu.exec_context.thread_0.numFpInsts            0                       # Number of float instructions (Count)
system.cpu.exec_context.thread_0.numVecInsts            0                       # Number of vector instructions (Count)
system.cpu.exec_context.thread_0.numIntRegReads            0                       # Number of times the integer registers were read (Count)
system.cpu.exec_context.thread_0.numIntRegWrites            0                       # Number of times the integer registers were written (Count)
system.cpu.exec_context.thread_0.numFpRegReads            0                       # Number of times the floating registers were read (Count)
system.cpu.exec_context.thread_0.numFpRegWrites            0                       # Number of times the floating registers were written (Count)
system.cpu.exec_context.thread_0.numVecRegReads            0                       # Number of times the vector registers were read (Count)
system.cpu.exec_context.thread_0.numVecRegWrites            0                       # Number of times the vector registers were written (Count)
system.cpu.exec_context.thread_0.numVecPredRegReads            0                       # Number of times the predicate registers were read (Count)
system.cpu.exec_context.thread_0.numVecPredRegWrites            0                       # Number of times the predicate registers were written (Count)
system.cpu.exec_context.thread_0.numMiscRegReads            0                       # Number of times the Misc registers were read (Count)
system.cpu.exec_context.thread_0.numMiscRegWrites            0                       # Number of times the Misc registers were written (Count)
system.cpu.exec_context.thread_0.numMemRefs            0                       # Number of memory refs (Count)
system.cpu.exec_context.thread_0.numLoadInsts            0                       # Number of load instructions (Count)
system.cpu.exec_context.thread_0.numStoreInsts            0                       # Number of store instructions (Count)
system.cpu.exec_context.thread_0.numIdleCycles            0                       # Number of idle cycles (Cycle)
system.cpu.exec_context.thread_0.numBusyCycles            0                       # Number of busy cycles (Cycle)
system.cpu.exec_context.thread_0.notIdleFraction            1                       # Percentage of non-idle cycles (Ratio)
system.cpu.exec_context.thread_0.idleFraction            0                       # Percentage of idle cycles (Ratio)
system.cpu.exec_context.thread_0.statExecutedInstType::No_OpClass            0                       # Class of executed instruction. (Count)
system.cpu.exec_context.thread_0.statExecutedInstType::IntAlu            0                       # Class of executed instruction. (Count)
system.cpu.exec_context.thread_0.statExecutedInstType::IntMult            0                       # Class of executed instruction. (Count)
system.cpu.exec_context.thread_0.statExecutedInstType::IntDiv            0                       # Class of executed instruction. (Count)
system.cpu.exec_context.thread_0.statExecutedInstType::FloatAdd            0                       # Class of executed instruction. (Count)
system.cpu.exec_context.thread_0.statExecutedInstType::FloatCmp            0                       # Class of executed instruction. (Count)
system.cpu.exec_context.thread_0.statExecutedInstType::FloatCvt            0                       # Class of executed instruction. (Count)
system.cpu.exec_context.thread_0.statExecutedInstType::FloatMult            0                       # Class of executed instruction. (Count)
system.cpu.exec_context.thread_0.statExecutedInstType::FloatMultAcc            0                       # Class of executed instruction. (Count)
system.cpu.exec_context.thread_0.statExecutedInstType::FloatDiv            0                       # Class of executed instruction. (Count)
system.cpu.exec_context.thread_0.statExecutedInstType::FloatMisc            0                       # Class of executed instruction. (Count)
system.cpu.exec_context.thread_0.statExecutedInstType::FloatSqrt            0                       # Class of executed instruction. (Count)
system.cpu.exec_context.thread_0.statExecutedInstType::SimdAdd            0                       # Class of executed instruction. (Count)
system.cpu.exec_context.thread_0.statExecutedInstType::SimdAddAcc            0                       # Class of executed instruction. (Count)
system.cpu.exec_context.thread_0.statExecutedInstType::SimdAlu            0                       # Class of executed instruction. (Count)
system.cpu.exec_context.thread_0.statExecutedInstType::SimdCmp            0                       # Class of executed instruction. (Count)
system.cpu.exec_context.thread_0.statExecutedInstType::SimdCvt            0                       # Class of executed instruction. (Count)
system.cpu.exec_context.thread_0.statExecutedInstType::SimdMisc            0                       # Class of executed instruction. (Count)
system.cpu.exec_context.thread_0.statExecutedInstType::SimdMult            0                       # Class of executed instruction. (Count)
system.cpu.exec_context.thread_0.statExecutedInstType::SimdMultAcc            0                       # Class of executed instruction. (Count)
system.cpu.exec_context.thread_0.statExecutedInstType::SimdShift            0                       # Class of executed instruction. (Count)
system.cpu.exec_context.thread_0.statExecutedInstType::SimdShiftAcc            0                       # Class of executed instruction. (Count)
system.cpu.exec_context.thread_0.statExecutedInstType::SimdDiv            0                       # Class of executed instruction. (Count)
system.cpu.exec_context.thread_0.statExecutedInstType::SimdSqrt            0                       # Class of executed instruction. (Count)
system.cpu.exec_context.thread_0.statExecutedInstType::SimdFloatAdd            0                       # Class of executed instruction. (Count)
system.cpu.exec_context.thread_0.statExecutedInstType::SimdFloatAlu            0                       # Class of executed instruction. (Count)
system.cpu.exec_context.thread_0.statExecutedInstType::SimdFloatCmp            0                       # Class of executed instruction. (Count)
system.cpu.exec_context.thread_0.statExecutedInstType::SimdFloatCvt            0                       # Class of executed instruction. (Count)
system.cpu.exec_context.thread_0.statExecutedInstType::SimdFloatDiv            0                       # Class of executed instruction. (Count)
system.cpu.exec_context.thread_0.statExecutedInstType::SimdFloatMisc            0                       # Class of executed instruction. (Count)
system.cpu.exec_context.thread_0.statExecutedInstType::SimdFloatMult            0                       # Class of executed instruction. (Count)
system.cpu.exec_context.thread_0.statExecutedInstType::SimdFloatMultAcc            0                       # Class of executed instruction. (Count)
system.cpu.exec_context.thread_0.statExecutedInstType::SimdFloatSqrt            0                       # Class of executed instruction. (Count)
system.cpu.exec_context.thread_0.statExecutedInstType::SimdReduceAdd            0                       # Class of executed instruction. (Count)
system.cpu.exec_context.thread_0.statExecutedInstType::SimdReduceAlu            0                       # Class of executed instruction. (Count)
system.cpu.exec_context.thread_0.statExecutedInstType::SimdReduceCmp            0                       # Class of executed instruction. (Count)
system.cpu.exec_context.thread_0.statExecutedInstType::SimdFloatReduceAdd            0                       # Class of executed instruction. (Count)
system.cpu.exec_context.thread_0.statExecutedInstType::SimdFloatReduceCmp            0                       # Class of executed instruction. (Count)
system.cpu.exec_context.thread_0.statExecutedInstType::SimdAes            0                       # Class of executed instruction. (Count)
system.cpu.exec_context.thread_0.statExecutedInstType::SimdAesMix            0                       # Class of executed instruction. (Count)
system.cpu.exec_context.thread_0.statExecutedInstType::SimdSha1Hash            0                       # Class of executed instruction. (Count)
system.cpu.exec_context.thread_0.statExecutedInstType::SimdSha1Hash2            0                       # Class of executed instruction. (Count)
system.cpu.exec_context.thread_0.statExecutedInstType::SimdSha256Hash            0                       # Class of executed instruction. (Count)
system.cpu.exec_context.thread_0.statExecutedInstType::SimdSha256Hash2            0                       # Class of executed instruction. (Count)
system.cpu.exec_context.thread_0.statExecutedInstType::SimdShaSigma2            0                       # Class of executed instruction. (Count)
system.cpu.exec_context.thread_0.statExecutedInstType::SimdShaSigma3            0                       # Class of executed instruction. (Count)
system.cpu.exec_context.thread_0.statExecutedInstType::SimdPredAlu            0                       # Class of executed instruction. (Count)
system.cpu.exec_context.thread_0.statExecutedInstType::MemRead            0                       # Class of executed instruction. (Count)
system.cpu.exec_context.thread_0.statExecutedInstType::MemWrite            0                       # Class of executed instruction. (Count)
system.cpu.exec_context.thread_0.statExecutedInstType::FloatMemRead            0                       # Class of executed instruction. (Count)
system.cpu.exec_context.thread_0.statExecutedInstType::FloatMemWrite            0                       # Class of executed instruction. (Count)
system.cpu.exec_context.thread_0.statExecutedInstType::IprAccess            0                       # Class of executed instruction. (Count)
system.cpu.exec_context.thread_0.statExecutedInstType::InstPrefetch            0                       # Class of executed instruction. (Count)
system.cpu.exec_context.thread_0.statExecutedInstType::total            0                       # Class of executed instruction. (Count)
system.cpu.icache.demandHits::switch_cpus.inst    932394781                       # number of demand (read+write) hits (Count)
system.cpu.icache.demandHits::total         932394781                       # number of demand (read+write) hits (Count)
system.cpu.icache.overallHits::switch_cpus.inst    932394781                       # number of overall hits (Count)
system.cpu.icache.overallHits::total        932394781                       # number of overall hits (Count)
system.cpu.icache.demandMisses::switch_cpus.inst            5                       # number of demand (read+write) misses (Count)
system.cpu.icache.demandMisses::total               5                       # number of demand (read+write) misses (Count)
system.cpu.icache.overallMisses::switch_cpus.inst            5                       # number of overall misses (Count)
system.cpu.icache.overallMisses::total              5                       # number of overall misses (Count)
system.cpu.icache.demandMissLatency::switch_cpus.inst       430000                       # number of demand (read+write) miss ticks (Tick)
system.cpu.icache.demandMissLatency::total       430000                       # number of demand (read+write) miss ticks (Tick)
system.cpu.icache.overallMissLatency::switch_cpus.inst       430000                       # number of overall miss ticks (Tick)
system.cpu.icache.overallMissLatency::total       430000                       # number of overall miss ticks (Tick)
system.cpu.icache.demandAccesses::switch_cpus.inst    932394786                       # number of demand (read+write) accesses (Count)
system.cpu.icache.demandAccesses::total     932394786                       # number of demand (read+write) accesses (Count)
system.cpu.icache.overallAccesses::switch_cpus.inst    932394786                       # number of overall (read+write) accesses (Count)
system.cpu.icache.overallAccesses::total    932394786                       # number of overall (read+write) accesses (Count)
system.cpu.icache.demandMissRate::switch_cpus.inst     0.000000                       # miss rate for demand accesses (Ratio)
system.cpu.icache.demandMissRate::total      0.000000                       # miss rate for demand accesses (Ratio)
system.cpu.icache.overallMissRate::switch_cpus.inst     0.000000                       # miss rate for overall accesses (Ratio)
system.cpu.icache.overallMissRate::total     0.000000                       # miss rate for overall accesses (Ratio)
system.cpu.icache.demandAvgMissLatency::switch_cpus.inst        86000                       # average overall miss latency in ticks ((Tick/Count))
system.cpu.icache.demandAvgMissLatency::total        86000                       # average overall miss latency in ticks ((Tick/Count))
system.cpu.icache.overallAvgMissLatency::switch_cpus.inst        86000                       # average overall miss latency ((Tick/Count))
system.cpu.icache.overallAvgMissLatency::total        86000                       # average overall miss latency ((Tick/Count))
system.cpu.icache.blockedCycles::no_mshrs            0                       # number of cycles access was blocked (Cycle)
system.cpu.icache.blockedCycles::no_targets            0                       # number of cycles access was blocked (Cycle)
system.cpu.icache.blockedCauses::no_mshrs            0                       # number of times access was blocked (Count)
system.cpu.icache.blockedCauses::no_targets            0                       # number of times access was blocked (Count)
system.cpu.icache.avgBlocked::no_mshrs            nan                       # average number of cycles each access was blocked ((Cycle/Count))
system.cpu.icache.avgBlocked::no_targets          nan                       # average number of cycles each access was blocked ((Cycle/Count))
system.cpu.icache.writebacks::writebacks            5                       # number of writebacks (Count)
system.cpu.icache.writebacks::total                 5                       # number of writebacks (Count)
system.cpu.icache.demandMshrMisses::switch_cpus.inst            5                       # number of demand (read+write) MSHR misses (Count)
system.cpu.icache.demandMshrMisses::total            5                       # number of demand (read+write) MSHR misses (Count)
system.cpu.icache.overallMshrMisses::switch_cpus.inst            5                       # number of overall MSHR misses (Count)
system.cpu.icache.overallMshrMisses::total            5                       # number of overall MSHR misses (Count)
system.cpu.icache.demandMshrMissLatency::switch_cpus.inst       425000                       # number of demand (read+write) MSHR miss ticks (Tick)
system.cpu.icache.demandMshrMissLatency::total       425000                       # number of demand (read+write) MSHR miss ticks (Tick)
system.cpu.icache.overallMshrMissLatency::switch_cpus.inst       425000                       # number of overall MSHR miss ticks (Tick)
system.cpu.icache.overallMshrMissLatency::total       425000                       # number of overall MSHR miss ticks (Tick)
system.cpu.icache.demandMshrMissRate::switch_cpus.inst     0.000000                       # mshr miss ratio for demand accesses (Ratio)
system.cpu.icache.demandMshrMissRate::total     0.000000                       # mshr miss ratio for demand accesses (Ratio)
system.cpu.icache.overallMshrMissRate::switch_cpus.inst     0.000000                       # mshr miss ratio for overall accesses (Ratio)
system.cpu.icache.overallMshrMissRate::total     0.000000                       # mshr miss ratio for overall accesses (Ratio)
system.cpu.icache.demandAvgMshrMissLatency::switch_cpus.inst        85000                       # average overall mshr miss latency ((Tick/Count))
system.cpu.icache.demandAvgMshrMissLatency::total        85000                       # average overall mshr miss latency ((Tick/Count))
system.cpu.icache.overallAvgMshrMissLatency::switch_cpus.inst        85000                       # average overall mshr miss latency ((Tick/Count))
system.cpu.icache.overallAvgMshrMissLatency::total        85000                       # average overall mshr miss latency ((Tick/Count))
system.cpu.icache.replacements                      5                       # number of replacements (Count)
system.cpu.icache.ReadReq.hits::switch_cpus.inst    932394781                       # number of ReadReq hits (Count)
system.cpu.icache.ReadReq.hits::total       932394781                       # number of ReadReq hits (Count)
system.cpu.icache.ReadReq.misses::switch_cpus.inst            5                       # number of ReadReq misses (Count)
system.cpu.icache.ReadReq.misses::total             5                       # number of ReadReq misses (Count)
system.cpu.icache.ReadReq.missLatency::switch_cpus.inst       430000                       # number of ReadReq miss ticks (Tick)
system.cpu.icache.ReadReq.missLatency::total       430000                       # number of ReadReq miss ticks (Tick)
system.cpu.icache.ReadReq.accesses::switch_cpus.inst    932394786                       # number of ReadReq accesses(hits+misses) (Count)
system.cpu.icache.ReadReq.accesses::total    932394786                       # number of ReadReq accesses(hits+misses) (Count)
system.cpu.icache.ReadReq.missRate::switch_cpus.inst     0.000000                       # miss rate for ReadReq accesses (Ratio)
system.cpu.icache.ReadReq.missRate::total     0.000000                       # miss rate for ReadReq accesses (Ratio)
system.cpu.icache.ReadReq.avgMissLatency::switch_cpus.inst        86000                       # average ReadReq miss latency ((Tick/Count))
system.cpu.icache.ReadReq.avgMissLatency::total        86000                       # average ReadReq miss latency ((Tick/Count))
system.cpu.icache.ReadReq.mshrMisses::switch_cpus.inst            5                       # number of ReadReq MSHR misses (Count)
system.cpu.icache.ReadReq.mshrMisses::total            5                       # number of ReadReq MSHR misses (Count)
system.cpu.icache.ReadReq.mshrMissLatency::switch_cpus.inst       425000                       # number of ReadReq MSHR miss ticks (Tick)
system.cpu.icache.ReadReq.mshrMissLatency::total       425000                       # number of ReadReq MSHR miss ticks (Tick)
system.cpu.icache.ReadReq.mshrMissRate::switch_cpus.inst     0.000000                       # mshr miss rate for ReadReq accesses (Ratio)
system.cpu.icache.ReadReq.mshrMissRate::total     0.000000                       # mshr miss rate for ReadReq accesses (Ratio)
system.cpu.icache.ReadReq.avgMshrMissLatency::switch_cpus.inst        85000                       # average ReadReq mshr miss latency ((Tick/Count))
system.cpu.icache.ReadReq.avgMshrMissLatency::total        85000                       # average ReadReq mshr miss latency ((Tick/Count))
system.cpu.icache.power_state.pwrStateResidencyTicks::UNDEFINED 1285649106500                       # Cumulative time (in ticks) in various power states (Tick)
system.cpu.icache.tags.tagsInUse                  512                       # Average ticks per tags in use ((Tick/Count))
system.cpu.icache.tags.totalRefs           1179874032                       # Total number of references to valid blocks. (Count)
system.cpu.icache.tags.sampledRefs                517                       # Sample count of references to valid blocks. (Count)
system.cpu.icache.tags.avgRefs           2282154.800774                       # Average number of references to valid blocks. ((Count/Count))
system.cpu.icache.tags.warmupTick                   0                       # The tick when the warmup percentage was hit. (Tick)
system.cpu.icache.tags.occupancies::cpu.inst   508.746643                       # Average occupied blocks per tick, per requestor ((Count/Tick))
system.cpu.icache.tags.occupancies::switch_cpus.inst     3.253357                       # Average occupied blocks per tick, per requestor ((Count/Tick))
system.cpu.icache.tags.avgOccs::cpu.inst     0.993646                       # Average percentage of cache occupancy ((Ratio/Tick))
system.cpu.icache.tags.avgOccs::switch_cpus.inst     0.006354                       # Average percentage of cache occupancy ((Ratio/Tick))
system.cpu.icache.tags.avgOccs::total               1                       # Average percentage of cache occupancy ((Ratio/Tick))
system.cpu.icache.tags.occupanciesTaskId::1024          512                       # Occupied blocks per task id (Count)
system.cpu.icache.tags.ageTaskId_1024::4          512                       # Occupied blocks per task id, per block age (Count)
system.cpu.icache.tags.ratioOccsTaskId::1024            1                       # Ratio of occupied blocks and all blocks, per task id (Ratio)
system.cpu.icache.tags.tagAccesses         7459158293                       # Number of tag accesses (Count)
system.cpu.icache.tags.dataAccesses        7459158293                       # Number of data accesses (Count)
system.cpu.icache.tags.power_state.pwrStateResidencyTicks::UNDEFINED 1285649106500                       # Cumulative time (in ticks) in various power states (Tick)
system.cpu.interrupts.clk_domain.clock           8000                       # Clock period in ticks (Tick)
system.cpu.itb_walker_cache.blockedCycles::no_mshrs            0                       # number of cycles access was blocked (Cycle)
system.cpu.itb_walker_cache.blockedCycles::no_targets            0                       # number of cycles access was blocked (Cycle)
system.cpu.itb_walker_cache.blockedCauses::no_mshrs            0                       # number of times access was blocked (Count)
system.cpu.itb_walker_cache.blockedCauses::no_targets            0                       # number of times access was blocked (Count)
system.cpu.itb_walker_cache.avgBlocked::no_mshrs          nan                       # average number of cycles each access was blocked ((Cycle/Count))
system.cpu.itb_walker_cache.avgBlocked::no_targets          nan                       # average number of cycles each access was blocked ((Cycle/Count))
system.cpu.itb_walker_cache.replacements            0                       # number of replacements (Count)
system.cpu.itb_walker_cache.power_state.pwrStateResidencyTicks::UNDEFINED 1285649106500                       # Cumulative time (in ticks) in various power states (Tick)
system.cpu.itb_walker_cache.tags.tagsInUse            0                       # Average ticks per tags in use ((Tick/Count))
system.cpu.itb_walker_cache.tags.totalRefs            0                       # Total number of references to valid blocks. (Count)
system.cpu.itb_walker_cache.tags.sampledRefs            0                       # Sample count of references to valid blocks. (Count)
system.cpu.itb_walker_cache.tags.avgRefs          nan                       # Average number of references to valid blocks. ((Count/Count))
system.cpu.itb_walker_cache.tags.warmupTick            0                       # The tick when the warmup percentage was hit. (Tick)
system.cpu.itb_walker_cache.tags.tagAccesses            0                       # Number of tag accesses (Count)
system.cpu.itb_walker_cache.tags.dataAccesses            0                       # Number of data accesses (Count)
system.cpu.itb_walker_cache.tags.power_state.pwrStateResidencyTicks::UNDEFINED 1285649106500                       # Cumulative time (in ticks) in various power states (Tick)
system.cpu.mmu.dtb.rdAccesses                       0                       # TLB accesses on read requests (Count)
system.cpu.mmu.dtb.wrAccesses                       0                       # TLB accesses on write requests (Count)
system.cpu.mmu.dtb.rdMisses                         0                       # TLB misses on read requests (Count)
system.cpu.mmu.dtb.wrMisses                         0                       # TLB misses on write requests (Count)
system.cpu.mmu.dtb.walker.power_state.pwrStateResidencyTicks::UNDEFINED 1285649106500                       # Cumulative time (in ticks) in various power states (Tick)
system.cpu.mmu.itb.rdAccesses                       0                       # TLB accesses on read requests (Count)
system.cpu.mmu.itb.wrAccesses                       0                       # TLB accesses on write requests (Count)
system.cpu.mmu.itb.rdMisses                         0                       # TLB misses on read requests (Count)
system.cpu.mmu.itb.wrMisses                         0                       # TLB misses on write requests (Count)
system.cpu.mmu.itb.walker.power_state.pwrStateResidencyTicks::UNDEFINED 1285649106500                       # Cumulative time (in ticks) in various power states (Tick)
system.cpu.power_state.pwrStateResidencyTicks::OFF 1101598869000                       # Cumulative time (in ticks) in various power states (Tick)
system.cpu.thread_0.numInsts                        0                       # Number of Instructions committed (Count)
system.cpu.thread_0.numOps                          0                       # Number of Ops committed (Count)
system.cpu.thread_0.numMemRefs                      0                       # Number of Memory References (Count)
system.cpu.workload.numSyscalls                     0                       # Number of system calls (Count)
system.cpu_clk_domain.clock                       500                       # Clock period in ticks (Tick)
system.cpu_voltage_domain.voltage                   1                       # Voltage in Volts (Volt)
system.l2.demandHits::switch_cpus.data         412246                       # number of demand (read+write) hits (Count)
system.l2.demandHits::total                    412246                       # number of demand (read+write) hits (Count)
system.l2.overallHits::switch_cpus.data        412246                       # number of overall hits (Count)
system.l2.overallHits::total                   412246                       # number of overall hits (Count)
system.l2.demandMisses::switch_cpus.inst            5                       # number of demand (read+write) misses (Count)
system.l2.demandMisses::switch_cpus.data       266640                       # number of demand (read+write) misses (Count)
system.l2.demandMisses::total                  266645                       # number of demand (read+write) misses (Count)
system.l2.overallMisses::switch_cpus.inst            5                       # number of overall misses (Count)
system.l2.overallMisses::switch_cpus.data       266640                       # number of overall misses (Count)
system.l2.overallMisses::total                 266645                       # number of overall misses (Count)
system.l2.demandMissLatency::switch_cpus.inst       417500                       # number of demand (read+write) miss ticks (Tick)
system.l2.demandMissLatency::switch_cpus.data  22169565500                       # number of demand (read+write) miss ticks (Tick)
system.l2.demandMissLatency::total        22169983000                       # number of demand (read+write) miss ticks (Tick)
system.l2.overallMissLatency::switch_cpus.inst       417500                       # number of overall miss ticks (Tick)
system.l2.overallMissLatency::switch_cpus.data  22169565500                       # number of overall miss ticks (Tick)
system.l2.overallMissLatency::total       22169983000                       # number of overall miss ticks (Tick)
system.l2.demandAccesses::switch_cpus.inst            5                       # number of demand (read+write) accesses (Count)
system.l2.demandAccesses::switch_cpus.data       678886                       # number of demand (read+write) accesses (Count)
system.l2.demandAccesses::total                678891                       # number of demand (read+write) accesses (Count)
system.l2.overallAccesses::switch_cpus.inst            5                       # number of overall (read+write) accesses (Count)
system.l2.overallAccesses::switch_cpus.data       678886                       # number of overall (read+write) accesses (Count)
system.l2.overallAccesses::total               678891                       # number of overall (read+write) accesses (Count)
system.l2.demandMissRate::switch_cpus.inst            1                       # miss rate for demand accesses (Ratio)
system.l2.demandMissRate::switch_cpus.data     0.392761                       # miss rate for demand accesses (Ratio)
system.l2.demandMissRate::total              0.392766                       # miss rate for demand accesses (Ratio)
system.l2.overallMissRate::switch_cpus.inst            1                       # miss rate for overall accesses (Ratio)
system.l2.overallMissRate::switch_cpus.data     0.392761                       # miss rate for overall accesses (Ratio)
system.l2.overallMissRate::total             0.392766                       # miss rate for overall accesses (Ratio)
system.l2.demandAvgMissLatency::switch_cpus.inst        83500                       # average overall miss latency in ticks ((Tick/Count))
system.l2.demandAvgMissLatency::switch_cpus.data 83144.185044                       # average overall miss latency in ticks ((Tick/Count))
system.l2.demandAvgMissLatency::total    83144.191716                       # average overall miss latency in ticks ((Tick/Count))
system.l2.overallAvgMissLatency::switch_cpus.inst        83500                       # average overall miss latency ((Tick/Count))
system.l2.overallAvgMissLatency::switch_cpus.data 83144.185044                       # average overall miss latency ((Tick/Count))
system.l2.overallAvgMissLatency::total   83144.191716                       # average overall miss latency ((Tick/Count))
system.l2.blockedCycles::no_mshrs                   0                       # number of cycles access was blocked (Cycle)
system.l2.blockedCycles::no_targets                 0                       # number of cycles access was blocked (Cycle)
system.l2.blockedCauses::no_mshrs                   0                       # number of times access was blocked (Count)
system.l2.blockedCauses::no_targets                 0                       # number of times access was blocked (Count)
system.l2.avgBlocked::no_mshrs                    nan                       # average number of cycles each access was blocked ((Cycle/Count))
system.l2.avgBlocked::no_targets                  nan                       # average number of cycles each access was blocked ((Cycle/Count))
system.l2.writebacks::writebacks               161492                       # number of writebacks (Count)
system.l2.writebacks::total                    161492                       # number of writebacks (Count)
system.l2.demandMshrMisses::switch_cpus.inst            5                       # number of demand (read+write) MSHR misses (Count)
system.l2.demandMshrMisses::switch_cpus.data       266640                       # number of demand (read+write) MSHR misses (Count)
system.l2.demandMshrMisses::total              266645                       # number of demand (read+write) MSHR misses (Count)
system.l2.overallMshrMisses::switch_cpus.inst            5                       # number of overall MSHR misses (Count)
system.l2.overallMshrMisses::switch_cpus.data       266640                       # number of overall MSHR misses (Count)
system.l2.overallMshrMisses::total             266645                       # number of overall MSHR misses (Count)
system.l2.demandMshrMissLatency::switch_cpus.inst       367500                       # number of demand (read+write) MSHR miss ticks (Tick)
system.l2.demandMshrMissLatency::switch_cpus.data  19503165500                       # number of demand (read+write) MSHR miss ticks (Tick)
system.l2.demandMshrMissLatency::total    19503533000                       # number of demand (read+write) MSHR miss ticks (Tick)
system.l2.overallMshrMissLatency::switch_cpus.inst       367500                       # number of overall MSHR miss ticks (Tick)
system.l2.overallMshrMissLatency::switch_cpus.data  19503165500                       # number of overall MSHR miss ticks (Tick)
system.l2.overallMshrMissLatency::total   19503533000                       # number of overall MSHR miss ticks (Tick)
system.l2.demandMshrMissRate::switch_cpus.inst            1                       # mshr miss ratio for demand accesses (Ratio)
system.l2.demandMshrMissRate::switch_cpus.data     0.392761                       # mshr miss ratio for demand accesses (Ratio)
system.l2.demandMshrMissRate::total          0.392766                       # mshr miss ratio for demand accesses (Ratio)
system.l2.overallMshrMissRate::switch_cpus.inst            1                       # mshr miss ratio for overall accesses (Ratio)
system.l2.overallMshrMissRate::switch_cpus.data     0.392761                       # mshr miss ratio for overall accesses (Ratio)
system.l2.overallMshrMissRate::total         0.392766                       # mshr miss ratio for overall accesses (Ratio)
system.l2.demandAvgMshrMissLatency::switch_cpus.inst        73500                       # average overall mshr miss latency ((Tick/Count))
system.l2.demandAvgMshrMissLatency::switch_cpus.data 73144.185044                       # average overall mshr miss latency ((Tick/Count))
system.l2.demandAvgMshrMissLatency::total 73144.191716                       # average overall mshr miss latency ((Tick/Count))
system.l2.overallAvgMshrMissLatency::switch_cpus.inst        73500                       # average overall mshr miss latency ((Tick/Count))
system.l2.overallAvgMshrMissLatency::switch_cpus.data 73144.185044                       # average overall mshr miss latency ((Tick/Count))
system.l2.overallAvgMshrMissLatency::total 73144.191716                       # average overall mshr miss latency ((Tick/Count))
system.l2.replacements                         275109                       # number of replacements (Count)
system.l2.ReadCleanReq.misses::switch_cpus.inst            5                       # number of ReadCleanReq misses (Count)
system.l2.ReadCleanReq.misses::total                5                       # number of ReadCleanReq misses (Count)
system.l2.ReadCleanReq.missLatency::switch_cpus.inst       417500                       # number of ReadCleanReq miss ticks (Tick)
system.l2.ReadCleanReq.missLatency::total       417500                       # number of ReadCleanReq miss ticks (Tick)
system.l2.ReadCleanReq.accesses::switch_cpus.inst            5                       # number of ReadCleanReq accesses(hits+misses) (Count)
system.l2.ReadCleanReq.accesses::total              5                       # number of ReadCleanReq accesses(hits+misses) (Count)
system.l2.ReadCleanReq.missRate::switch_cpus.inst            1                       # miss rate for ReadCleanReq accesses (Ratio)
system.l2.ReadCleanReq.missRate::total              1                       # miss rate for ReadCleanReq accesses (Ratio)
system.l2.ReadCleanReq.avgMissLatency::switch_cpus.inst        83500                       # average ReadCleanReq miss latency ((Tick/Count))
system.l2.ReadCleanReq.avgMissLatency::total        83500                       # average ReadCleanReq miss latency ((Tick/Count))
system.l2.ReadCleanReq.mshrMisses::switch_cpus.inst            5                       # number of ReadCleanReq MSHR misses (Count)
system.l2.ReadCleanReq.mshrMisses::total            5                       # number of ReadCleanReq MSHR misses (Count)
system.l2.ReadCleanReq.mshrMissLatency::switch_cpus.inst       367500                       # number of ReadCleanReq MSHR miss ticks (Tick)
system.l2.ReadCleanReq.mshrMissLatency::total       367500                       # number of ReadCleanReq MSHR miss ticks (Tick)
system.l2.ReadCleanReq.mshrMissRate::switch_cpus.inst            1                       # mshr miss rate for ReadCleanReq accesses (Ratio)
system.l2.ReadCleanReq.mshrMissRate::total            1                       # mshr miss rate for ReadCleanReq accesses (Ratio)
system.l2.ReadCleanReq.avgMshrMissLatency::switch_cpus.inst        73500                       # average ReadCleanReq mshr miss latency ((Tick/Count))
system.l2.ReadCleanReq.avgMshrMissLatency::total        73500                       # average ReadCleanReq mshr miss latency ((Tick/Count))
system.l2.ReadExReq.hits::switch_cpus.data       110461                       # number of ReadExReq hits (Count)
system.l2.ReadExReq.hits::total                110461                       # number of ReadExReq hits (Count)
system.l2.ReadExReq.misses::switch_cpus.data       158183                       # number of ReadExReq misses (Count)
system.l2.ReadExReq.misses::total              158183                       # number of ReadExReq misses (Count)
system.l2.ReadExReq.missLatency::switch_cpus.data  13052966500                       # number of ReadExReq miss ticks (Tick)
system.l2.ReadExReq.missLatency::total    13052966500                       # number of ReadExReq miss ticks (Tick)
system.l2.ReadExReq.accesses::switch_cpus.data       268644                       # number of ReadExReq accesses(hits+misses) (Count)
system.l2.ReadExReq.accesses::total            268644                       # number of ReadExReq accesses(hits+misses) (Count)
system.l2.ReadExReq.missRate::switch_cpus.data     0.588820                       # miss rate for ReadExReq accesses (Ratio)
system.l2.ReadExReq.missRate::total          0.588820                       # miss rate for ReadExReq accesses (Ratio)
system.l2.ReadExReq.avgMissLatency::switch_cpus.data 82518.137221                       # average ReadExReq miss latency ((Tick/Count))
system.l2.ReadExReq.avgMissLatency::total 82518.137221                       # average ReadExReq miss latency ((Tick/Count))
system.l2.ReadExReq.mshrMisses::switch_cpus.data       158183                       # number of ReadExReq MSHR misses (Count)
system.l2.ReadExReq.mshrMisses::total          158183                       # number of ReadExReq MSHR misses (Count)
system.l2.ReadExReq.mshrMissLatency::switch_cpus.data  11471136500                       # number of ReadExReq MSHR miss ticks (Tick)
system.l2.ReadExReq.mshrMissLatency::total  11471136500                       # number of ReadExReq MSHR miss ticks (Tick)
system.l2.ReadExReq.mshrMissRate::switch_cpus.data     0.588820                       # mshr miss rate for ReadExReq accesses (Ratio)
system.l2.ReadExReq.mshrMissRate::total      0.588820                       # mshr miss rate for ReadExReq accesses (Ratio)
system.l2.ReadExReq.avgMshrMissLatency::switch_cpus.data 72518.137221                       # average ReadExReq mshr miss latency ((Tick/Count))
system.l2.ReadExReq.avgMshrMissLatency::total 72518.137221                       # average ReadExReq mshr miss latency ((Tick/Count))
system.l2.ReadSharedReq.hits::switch_cpus.data       301785                       # number of ReadSharedReq hits (Count)
system.l2.ReadSharedReq.hits::total            301785                       # number of ReadSharedReq hits (Count)
system.l2.ReadSharedReq.misses::switch_cpus.data       108457                       # number of ReadSharedReq misses (Count)
system.l2.ReadSharedReq.misses::total          108457                       # number of ReadSharedReq misses (Count)
system.l2.ReadSharedReq.missLatency::switch_cpus.data   9116599000                       # number of ReadSharedReq miss ticks (Tick)
system.l2.ReadSharedReq.missLatency::total   9116599000                       # number of ReadSharedReq miss ticks (Tick)
system.l2.ReadSharedReq.accesses::switch_cpus.data       410242                       # number of ReadSharedReq accesses(hits+misses) (Count)
system.l2.ReadSharedReq.accesses::total        410242                       # number of ReadSharedReq accesses(hits+misses) (Count)
system.l2.ReadSharedReq.missRate::switch_cpus.data     0.264373                       # miss rate for ReadSharedReq accesses (Ratio)
system.l2.ReadSharedReq.missRate::total      0.264373                       # miss rate for ReadSharedReq accesses (Ratio)
system.l2.ReadSharedReq.avgMissLatency::switch_cpus.data 84057.266935                       # average ReadSharedReq miss latency ((Tick/Count))
system.l2.ReadSharedReq.avgMissLatency::total 84057.266935                       # average ReadSharedReq miss latency ((Tick/Count))
system.l2.ReadSharedReq.mshrMisses::switch_cpus.data       108457                       # number of ReadSharedReq MSHR misses (Count)
system.l2.ReadSharedReq.mshrMisses::total       108457                       # number of ReadSharedReq MSHR misses (Count)
system.l2.ReadSharedReq.mshrMissLatency::switch_cpus.data   8032029000                       # number of ReadSharedReq MSHR miss ticks (Tick)
system.l2.ReadSharedReq.mshrMissLatency::total   8032029000                       # number of ReadSharedReq MSHR miss ticks (Tick)
system.l2.ReadSharedReq.mshrMissRate::switch_cpus.data     0.264373                       # mshr miss rate for ReadSharedReq accesses (Ratio)
system.l2.ReadSharedReq.mshrMissRate::total     0.264373                       # mshr miss rate for ReadSharedReq accesses (Ratio)
system.l2.ReadSharedReq.avgMshrMissLatency::switch_cpus.data 74057.266935                       # average ReadSharedReq mshr miss latency ((Tick/Count))
system.l2.ReadSharedReq.avgMshrMissLatency::total 74057.266935                       # average ReadSharedReq mshr miss latency ((Tick/Count))
system.l2.WritebackClean.hits::writebacks       228537                       # number of WritebackClean hits (Count)
system.l2.WritebackClean.hits::total           228537                       # number of WritebackClean hits (Count)
system.l2.WritebackClean.accesses::writebacks       228537                       # number of WritebackClean accesses(hits+misses) (Count)
system.l2.WritebackClean.accesses::total       228537                       # number of WritebackClean accesses(hits+misses) (Count)
system.l2.WritebackDirty.hits::writebacks       450354                       # number of WritebackDirty hits (Count)
system.l2.WritebackDirty.hits::total           450354                       # number of WritebackDirty hits (Count)
system.l2.WritebackDirty.accesses::writebacks       450354                       # number of WritebackDirty accesses(hits+misses) (Count)
system.l2.WritebackDirty.accesses::total       450354                       # number of WritebackDirty accesses(hits+misses) (Count)
system.l2.power_state.pwrStateResidencyTicks::UNDEFINED 1285649106500                       # Cumulative time (in ticks) in various power states (Tick)
system.l2.tags.tagsInUse                         8192                       # Average ticks per tags in use ((Tick/Count))
system.l2.tags.totalRefs                      1406717                       # Total number of references to valid blocks. (Count)
system.l2.tags.sampledRefs                     283301                       # Sample count of references to valid blocks. (Count)
system.l2.tags.avgRefs                       4.965450                       # Average number of references to valid blocks. ((Count/Count))
system.l2.tags.warmupTick                           0                       # The tick when the warmup percentage was hit. (Tick)
system.l2.tags.occupancies::writebacks     291.047009                       # Average occupied blocks per tick, per requestor ((Count/Tick))
system.l2.tags.occupancies::cpu.data       188.801141                       # Average occupied blocks per tick, per requestor ((Count/Tick))
system.l2.tags.occupancies::switch_cpus.inst     0.170716                       # Average occupied blocks per tick, per requestor ((Count/Tick))
system.l2.tags.occupancies::switch_cpus.data  7711.981135                       # Average occupied blocks per tick, per requestor ((Count/Tick))
system.l2.tags.avgOccs::writebacks           0.035528                       # Average percentage of cache occupancy ((Ratio/Tick))
system.l2.tags.avgOccs::cpu.data             0.023047                       # Average percentage of cache occupancy ((Ratio/Tick))
system.l2.tags.avgOccs::switch_cpus.inst     0.000021                       # Average percentage of cache occupancy ((Ratio/Tick))
system.l2.tags.avgOccs::switch_cpus.data     0.941404                       # Average percentage of cache occupancy ((Ratio/Tick))
system.l2.tags.avgOccs::total                       1                       # Average percentage of cache occupancy ((Ratio/Tick))
system.l2.tags.occupanciesTaskId::1024           8192                       # Occupied blocks per task id (Count)
system.l2.tags.ageTaskId_1024::0                    1                       # Occupied blocks per task id, per block age (Count)
system.l2.tags.ageTaskId_1024::1                    7                       # Occupied blocks per task id, per block age (Count)
system.l2.tags.ageTaskId_1024::2                  264                       # Occupied blocks per task id, per block age (Count)
system.l2.tags.ageTaskId_1024::3                 2212                       # Occupied blocks per task id, per block age (Count)
system.l2.tags.ageTaskId_1024::4                 5708                       # Occupied blocks per task id, per block age (Count)
system.l2.tags.ratioOccsTaskId::1024                1                       # Ratio of occupied blocks and all blocks, per task id (Ratio)
system.l2.tags.tagAccesses                   11137365                       # Number of tag accesses (Count)
system.l2.tags.dataAccesses                  11137365                       # Number of data accesses (Count)
system.l2.tags.power_state.pwrStateResidencyTicks::UNDEFINED 1285649106500                       # Cumulative time (in ticks) in various power states (Tick)
system.mem_ctrls.avgPriority_writebacks::samples    161492.00                       # Average QoS priority value for accepted requests (Count)
system.mem_ctrls.avgPriority_switch_cpus.inst::samples         5.00                       # Average QoS priority value for accepted requests (Count)
system.mem_ctrls.avgPriority_switch_cpus.data::samples    265558.00                       # Average QoS priority value for accepted requests (Count)
system.mem_ctrls.priorityMinLatency      0.000000018750                       # per QoS priority minimum request to response latency (Second)
system.mem_ctrls.priorityMaxLatency      0.002497557750                       # per QoS priority maximum request to response latency (Second)
system.mem_ctrls.numReadWriteTurnArounds         9467                       # Number of turnarounds from READ to WRITE (Count)
system.mem_ctrls.numWriteReadTurnArounds         9467                       # Number of turnarounds from WRITE to READ (Count)
system.mem_ctrls.numStayReadState              970692                       # Number of times bus staying in READ state (Count)
system.mem_ctrls.numStayWriteState             152098                       # Number of times bus staying in WRITE state (Count)
system.mem_ctrls.readReqs                      266645                       # Number of read requests accepted (Count)
system.mem_ctrls.writeReqs                     161492                       # Number of write requests accepted (Count)
system.mem_ctrls.readBursts                    266645                       # Number of controller read bursts, including those serviced by the write queue (Count)
system.mem_ctrls.writeBursts                   161492                       # Number of controller write bursts, including those merged in the write queue (Count)
system.mem_ctrls.servicedByWrQ                   1082                       # Number of controller read bursts serviced by the write queue (Count)
system.mem_ctrls.mergedWrBursts                     0                       # Number of controller write bursts merged with an existing one (Count)
system.mem_ctrls.neitherReadNorWriteReqs            0                       # Number of requests that are neither read nor write (Count)
system.mem_ctrls.avgRdQLen                       1.01                       # Average read queue length when enqueuing ((Count/Tick))
system.mem_ctrls.avgWrQLen                      24.60                       # Average write queue length when enqueuing ((Count/Tick))
system.mem_ctrls.numRdRetry                         0                       # Number of times read queue was full causing retry (Count)
system.mem_ctrls.numWrRetry                         0                       # Number of times write queue was full causing retry (Count)
system.mem_ctrls.readPktSize::0                     0                       # Read request sizes (log2) (Count)
system.mem_ctrls.readPktSize::1                     0                       # Read request sizes (log2) (Count)
system.mem_ctrls.readPktSize::2                     0                       # Read request sizes (log2) (Count)
system.mem_ctrls.readPktSize::3                     0                       # Read request sizes (log2) (Count)
system.mem_ctrls.readPktSize::4                     0                       # Read request sizes (log2) (Count)
system.mem_ctrls.readPktSize::5                     0                       # Read request sizes (log2) (Count)
system.mem_ctrls.readPktSize::6                266645                       # Read request sizes (log2) (Count)
system.mem_ctrls.writePktSize::0                    0                       # Write request sizes (log2) (Count)
system.mem_ctrls.writePktSize::1                    0                       # Write request sizes (log2) (Count)
system.mem_ctrls.writePktSize::2                    0                       # Write request sizes (log2) (Count)
system.mem_ctrls.writePktSize::3                    0                       # Write request sizes (log2) (Count)
system.mem_ctrls.writePktSize::4                    0                       # Write request sizes (log2) (Count)
system.mem_ctrls.writePktSize::5                    0                       # Write request sizes (log2) (Count)
system.mem_ctrls.writePktSize::6               161492                       # Write request sizes (log2) (Count)
system.mem_ctrls.rdQLenPdf::0                  264321                       # What read queue length does an incoming req see (Count)
system.mem_ctrls.rdQLenPdf::1                    1242                       # What read queue length does an incoming req see (Count)
system.mem_ctrls.rdQLenPdf::2                       0                       # What read queue length does an incoming req see (Count)
system.mem_ctrls.rdQLenPdf::3                       0                       # What read queue length does an incoming req see (Count)
system.mem_ctrls.rdQLenPdf::4                       0                       # What read queue length does an incoming req see (Count)
system.mem_ctrls.rdQLenPdf::5                       0                       # What read queue length does an incoming req see (Count)
system.mem_ctrls.rdQLenPdf::6                       0                       # What read queue length does an incoming req see (Count)
system.mem_ctrls.rdQLenPdf::7                       0                       # What read queue length does an incoming req see (Count)
system.mem_ctrls.rdQLenPdf::8                       0                       # What read queue length does an incoming req see (Count)
system.mem_ctrls.rdQLenPdf::9                       0                       # What read queue length does an incoming req see (Count)
system.mem_ctrls.rdQLenPdf::10                      0                       # What read queue length does an incoming req see (Count)
system.mem_ctrls.rdQLenPdf::11                      0                       # What read queue length does an incoming req see (Count)
system.mem_ctrls.rdQLenPdf::12                      0                       # What read queue length does an incoming req see (Count)
system.mem_ctrls.rdQLenPdf::13                      0                       # What read queue length does an incoming req see (Count)
system.mem_ctrls.rdQLenPdf::14                      0                       # What read queue length does an incoming req see (Count)
system.mem_ctrls.rdQLenPdf::15                      0                       # What read queue length does an incoming req see (Count)
system.mem_ctrls.rdQLenPdf::16                      0                       # What read queue length does an incoming req see (Count)
system.mem_ctrls.rdQLenPdf::17                      0                       # What read queue length does an incoming req see (Count)
system.mem_ctrls.rdQLenPdf::18                      0                       # What read queue length does an incoming req see (Count)
system.mem_ctrls.rdQLenPdf::19                      0                       # What read queue length does an incoming req see (Count)
system.mem_ctrls.rdQLenPdf::20                      0                       # What read queue length does an incoming req see (Count)
system.mem_ctrls.rdQLenPdf::21                      0                       # What read queue length does an incoming req see (Count)
system.mem_ctrls.rdQLenPdf::22                      0                       # What read queue length does an incoming req see (Count)
system.mem_ctrls.rdQLenPdf::23                      0                       # What read queue length does an incoming req see (Count)
system.mem_ctrls.rdQLenPdf::24                      0                       # What read queue length does an incoming req see (Count)
system.mem_ctrls.rdQLenPdf::25                      0                       # What read queue length does an incoming req see (Count)
system.mem_ctrls.rdQLenPdf::26                      0                       # What read queue length does an incoming req see (Count)
system.mem_ctrls.rdQLenPdf::27                      0                       # What read queue length does an incoming req see (Count)
system.mem_ctrls.rdQLenPdf::28                      0                       # What read queue length does an incoming req see (Count)
system.mem_ctrls.rdQLenPdf::29                      0                       # What read queue length does an incoming req see (Count)
system.mem_ctrls.rdQLenPdf::30                      0                       # What read queue length does an incoming req see (Count)
system.mem_ctrls.rdQLenPdf::31                      0                       # What read queue length does an incoming req see (Count)
system.mem_ctrls.wrQLenPdf::0                       1                       # What write queue length does an incoming req see (Count)
system.mem_ctrls.wrQLenPdf::1                       1                       # What write queue length does an incoming req see (Count)
system.mem_ctrls.wrQLenPdf::2                       1                       # What write queue length does an incoming req see (Count)
system.mem_ctrls.wrQLenPdf::3                       1                       # What write queue length does an incoming req see (Count)
system.mem_ctrls.wrQLenPdf::4                       1                       # What write queue length does an incoming req see (Count)
system.mem_ctrls.wrQLenPdf::5                       1                       # What write queue length does an incoming req see (Count)
system.mem_ctrls.wrQLenPdf::6                       1                       # What write queue length does an incoming req see (Count)
system.mem_ctrls.wrQLenPdf::7                       1                       # What write queue length does an incoming req see (Count)
system.mem_ctrls.wrQLenPdf::8                       1                       # What write queue length does an incoming req see (Count)
system.mem_ctrls.wrQLenPdf::9                       1                       # What write queue length does an incoming req see (Count)
system.mem_ctrls.wrQLenPdf::10                      1                       # What write queue length does an incoming req see (Count)
system.mem_ctrls.wrQLenPdf::11                      1                       # What write queue length does an incoming req see (Count)
system.mem_ctrls.wrQLenPdf::12                      1                       # What write queue length does an incoming req see (Count)
system.mem_ctrls.wrQLenPdf::13                      1                       # What write queue length does an incoming req see (Count)
system.mem_ctrls.wrQLenPdf::14                      1                       # What write queue length does an incoming req see (Count)
system.mem_ctrls.wrQLenPdf::15                   4944                       # What write queue length does an incoming req see (Count)
system.mem_ctrls.wrQLenPdf::16                   4948                       # What write queue length does an incoming req see (Count)
system.mem_ctrls.wrQLenPdf::17                   9444                       # What write queue length does an incoming req see (Count)
system.mem_ctrls.wrQLenPdf::18                   9475                       # What write queue length does an incoming req see (Count)
system.mem_ctrls.wrQLenPdf::19                   9475                       # What write queue length does an incoming req see (Count)
system.mem_ctrls.wrQLenPdf::20                   9479                       # What write queue length does an incoming req see (Count)
system.mem_ctrls.wrQLenPdf::21                   9477                       # What write queue length does an incoming req see (Count)
system.mem_ctrls.wrQLenPdf::22                   9468                       # What write queue length does an incoming req see (Count)
system.mem_ctrls.wrQLenPdf::23                   9472                       # What write queue length does an incoming req see (Count)
system.mem_ctrls.wrQLenPdf::24                   9470                       # What write queue length does an incoming req see (Count)
system.mem_ctrls.wrQLenPdf::25                   9488                       # What write queue length does an incoming req see (Count)
system.mem_ctrls.wrQLenPdf::26                   9509                       # What write queue length does an incoming req see (Count)
system.mem_ctrls.wrQLenPdf::27                   9469                       # What write queue length does an incoming req see (Count)
system.mem_ctrls.wrQLenPdf::28                   9468                       # What write queue length does an incoming req see (Count)
system.mem_ctrls.wrQLenPdf::29                   9489                       # What write queue length does an incoming req see (Count)
system.mem_ctrls.wrQLenPdf::30                   9467                       # What write queue length does an incoming req see (Count)
system.mem_ctrls.wrQLenPdf::31                   9467                       # What write queue length does an incoming req see (Count)
system.mem_ctrls.wrQLenPdf::32                   9467                       # What write queue length does an incoming req see (Count)
system.mem_ctrls.wrQLenPdf::33                      1                       # What write queue length does an incoming req see (Count)
system.mem_ctrls.wrQLenPdf::34                      0                       # What write queue length does an incoming req see (Count)
system.mem_ctrls.wrQLenPdf::35                      0                       # What write queue length does an incoming req see (Count)
system.mem_ctrls.wrQLenPdf::36                      0                       # What write queue length does an incoming req see (Count)
system.mem_ctrls.wrQLenPdf::37                      0                       # What write queue length does an incoming req see (Count)
system.mem_ctrls.wrQLenPdf::38                      0                       # What write queue length does an incoming req see (Count)
system.mem_ctrls.wrQLenPdf::39                      0                       # What write queue length does an incoming req see (Count)
system.mem_ctrls.wrQLenPdf::40                      0                       # What write queue length does an incoming req see (Count)
system.mem_ctrls.wrQLenPdf::41                      0                       # What write queue length does an incoming req see (Count)
system.mem_ctrls.wrQLenPdf::42                      0                       # What write queue length does an incoming req see (Count)
system.mem_ctrls.wrQLenPdf::43                      0                       # What write queue length does an incoming req see (Count)
system.mem_ctrls.wrQLenPdf::44                      0                       # What write queue length does an incoming req see (Count)
[...]
system.switch_cpus.numWorkItemsCompleted            0                       # Number of work items this cpu completed (Count)
system.switch_cpus.exec_context.thread_0.numInsts    700000000                       # Number of instructions committed (Count)
system.switch_cpus.exec_context.thread_0.numOps   1038043463                       # Number of ops (including micro ops) committed (Count)
system.switch_cpus.exec_context.thread_0.numIntAluAccesses   1036417389                       # Number of integer alu accesses (Count)
system.switch_cpus.exec_context.thread_0.numFpAluAccesses        25380                       # Number of float alu accesses (Count)
system.switch_cpus.exec_context.thread_0.numVecAluAccesses            0                       # Number of vector alu accesses (Count)
system.switch_cpus.exec_context.thread_0.numCallsReturns       339832                       # Number of times a function call or return occured (Count)
system.switch_cpus.exec_context.thread_0.numCondCtrlInsts     71289864                       # Number of instructions that are conditional controls (Count)
system.switch_cpus.exec_context.thread_0.numIntInsts   1036417389                       # Number of integer instructions (Count)
system.switch_cpus.exec_context.thread_0.numFpInsts        25380                       # Number of float instructions (Count)
system.switch_cpus.exec_context.thread_0.numVecInsts            0                       # Number of vector instructions (Count)
system.switch_cpus.exec_context.thread_0.numIntRegReads   1729485500                       # Number of times the integer registers were read (Count)
system.switch_cpus.exec_context.thread_0.numIntRegWrites    834788749                       # Number of times the integer registers were written (Count)
system.switch_cpus.exec_context.thread_0.numFpRegReads        15288                       # Number of times the floating registers were read (Count)
system.switch_cpus.exec_context.thread_0.numFpRegWrites        18652                       # Number of times the floating registers were written (Count)
system.switch_cpus.exec_context.thread_0.numVecRegReads            0                       # Number of times the vector registers were read (Count)
system.switch_cpus.exec_context.thread_0.numVecRegWrites            0                       # Number of times the vector registers were written (Count)
system.switch_cpus.exec_context.thread_0.numVecPredRegReads            0                       # Number of times the predicate registers were read (Count)
system.switch_cpus.exec_context.thread_0.numVecPredRegWrites            0                       # Number of times the predicate registers were written (Count)
system.switch_cpus.exec_context.thread_0.numCCRegReads    509292302                       # Number of times the CC registers were read (Count)
system.switch_cpus.exec_context.thread_0.numCCRegWrites    595775432                       # Number of times the CC registers were written (Count)
system.switch_cpus.exec_context.thread_0.numMiscRegReads    311163122                       # Number of times the Misc registers were read (Count)
system.switch_cpus.exec_context.thread_0.numMiscRegWrites            0                       # Number of times the Misc registers were written (Count)
system.switch_cpus.exec_context.thread_0.numMemRefs    141810821                       # Number of memory refs (Count)
system.switch_cpus.exec_context.thread_0.numLoadInsts     98884095                       # Number of load instructions (Count)
system.switch_cpus.exec_context.thread_0.numStoreInsts     42926726                       # Number of store instructions (Count)
system.switch_cpus.exec_context.thread_0.numIdleCycles            0                       # Number of idle cycles (Cycle)
system.switch_cpus.exec_context.thread_0.numBusyCycles   2203197738                       # Number of busy cycles (Cycle)
system.switch_cpus.exec_context.thread_0.notIdleFraction            1                       # Percentage of non-idle cycles (Ratio)
system.switch_cpus.exec_context.thread_0.idleFraction            0                       # Percentage of idle cycles (Ratio)
system.switch_cpus.exec_context.thread_0.numBranches     86232867                       # Number of branches fetched (Count)
system.switch_cpus.exec_context.thread_0.statExecutedInstType::No_OpClass       148771      0.01%      0.01% # Class of executed instruction. (Count)
system.switch_cpus.exec_context.thread_0.statExecutedInstType::IntAlu    870429006     83.85%     83.87% # Class of executed instruction. (Count)
system.switch_cpus.exec_context.thread_0.statExecutedInstType::IntMult     25646723      2.47%     86.34% # Class of executed instruction. (Count)
system.switch_cpus.exec_context.thread_0.statExecutedInstType::IntDiv            0      0.00%     86.34% # Class of executed instruction. (Count)
system.switch_cpus.exec_context.thread_0.statExecutedInstType::FloatAdd         5932      0.00%     86.34% # Class of executed instruction. (Count)
system.switch_cpus.exec_context.thread_0.statExecutedInstType::FloatCmp            0      0.00%     86.34% # Class of executed instruction. (Count)
system.switch_cpus.exec_context.thread_0.statExecutedInstType::FloatCvt            0      0.00%     86.34% # Class of executed instruction. (Count)
system.switch_cpus.exec_context.thread_0.statExecutedInstType::FloatMult            0      0.00%     86.34% # Class of executed instruction. (Count)
system.switch_cpus.exec_context.thread_0.statExecutedInstType::FloatMultAcc            0      0.00%     86.34% # Class of executed instruction. (Count)
system.switch_cpus.exec_context.thread_0.statExecutedInstType::FloatDiv            0      0.00%     86.34% # Class of executed instruction. (Count)
system.switch_cpus.exec_context.thread_0.statExecutedInstType::FloatMisc            0      0.00%     86.34% # Class of executed instruction. (Count)
system.switch_cpus.exec_context.thread_0.statExecutedInstType::FloatSqrt            0      0.00%     86.34% # Class of executed instruction. (Count)
system.switch_cpus.exec_context.thread_0.statExecutedInstType::SimdAdd            0      0.00%     86.34% # Class of executed instruction. (Count)
system.switch_cpus.exec_context.thread_0.statExecutedInstType::SimdAddAcc            0      0.00%     86.34% # Class of executed instruction. (Count)
system.switch_cpus.exec_context.thread_0.statExecutedInstType::SimdAlu            0      0.00%     86.34% # Class of executed instruction. (Count)
system.switch_cpus.exec_context.thread_0.statExecutedInstType::SimdCmp            0      0.00%     86.34% # Class of executed instruction. (Count)
system.switch_cpus.exec_context.thread_0.statExecutedInstType::SimdCvt            0      0.00%     86.34% # Class of executed instruction. (Count)
system.switch_cpus.exec_context.thread_0.statExecutedInstType::SimdMisc         3424      0.00%     86.34% # Class of executed instruction. (Count)
system.switch_cpus.exec_context.thread_0.statExecutedInstType::SimdMult            0      0.00%     86.34% # Class of executed instruction. (Count)
system.switch_cpus.exec_context.thread_0.statExecutedInstType::SimdMultAcc            0      0.00%     86.34% # Class of executed instruction. (Count)
system.switch_cpus.exec_context.thread_0.statExecutedInstType::SimdShift            0      0.00%     86.34% # Class of executed instruction. (Count)
system.switch_cpus.exec_context.thread_0.statExecutedInstType::SimdShiftAcc            0      0.00%     86.34% # Class of executed instruction. (Count)
system.switch_cpus.exec_context.thread_0.statExecutedInstType::SimdDiv            0      0.00%     86.34% # Class of executed instruction. (Count)
system.switch_cpus.exec_context.thread_0.statExecutedInstType::SimdSqrt            0      0.00%     86.34% # Class of executed instruction. (Count)
system.switch_cpus.exec_context.thread_0.statExecutedInstType::SimdFloatAdd            0      0.00%     86.34% # Class of executed instruction. (Count)
system.switch_cpus.exec_context.thread_0.statExecutedInstType::SimdFloatAlu            0      0.00%     86.34% # Class of executed instruction. (Count)
system.switch_cpus.exec_context.thread_0.statExecutedInstType::SimdFloatCmp            0      0.00%     86.34% # Class of executed instruction. (Count)
system.switch_cpus.exec_context.thread_0.statExecutedInstType::SimdFloatCvt            0      0.00%     86.34% # Class of executed instruction. (Count)
system.switch_cpus.exec_context.thread_0.statExecutedInstType::SimdFloatDiv            0      0.00%     86.34% # Class of executed instruction. (Count)
system.switch_cpus.exec_context.thread_0.statExecutedInstType::SimdFloatMisc            0      0.00%     86.34% # Class of executed instruction. (Count)
system.switch_cpus.exec_context.thread_0.statExecutedInstType::SimdFloatMult            0      0.00%     86.34% # Class of executed instruction. (Count)
system.switch_cpus.exec_context.thread_0.statExecutedInstType::SimdFloatMultAcc            0      0.00%     86.34% # Class of executed instruction. (Count)
system.switch_cpus.exec_context.thread_0.statExecutedInstType::SimdFloatSqrt            0      0.00%     86.34% # Class of executed instruction. (Count)
system.switch_cpus.exec_context.thread_0.statExecutedInstType::SimdReduceAdd            0      0.00%     86.34% # Class of executed instruction. (Count)
system.switch_cpus.exec_context.thread_0.statExecutedInstType::SimdReduceAlu            0      0.00%     86.34% # Class of executed instruction. (Count)
system.switch_cpus.exec_context.thread_0.statExecutedInstType::SimdReduceCmp            0      0.00%     86.34% # Class of executed instruction. (Count)
system.switch_cpus.exec_context.thread_0.statExecutedInstType::SimdFloatReduceAdd            0      0.00%     86.34% # Class of executed instruction. (Count)
system.switch_cpus.exec_context.thread_0.statExecutedInstType::SimdFloatReduceCmp            0      0.00%     86.34% # Class of executed instruction. (Count)
system.switch_cpus.exec_context.thread_0.statExecutedInstType::SimdAes            0      0.00%     86.34% # Class of executed instruction. (Count)
system.switch_cpus.exec_context.thread_0.statExecutedInstType::SimdAesMix            0      0.00%     86.34% # Class of executed instruction. (Count)
system.switch_cpus.exec_context.thread_0.statExecutedInstType::SimdSha1Hash            0      0.00%     86.34% # Class of executed instruction. (Count)
system.switch_cpus.exec_context.thread_0.statExecutedInstType::SimdSha1Hash2            0      0.00%     86.34% # Class of executed instruction. (Count)
system.switch_cpus.exec_context.thread_0.statExecutedInstType::SimdSha256Hash            0      0.00%     86.34% # Class of executed instruction. (Count)
system.switch_cpus.exec_context.thread_0.statExecutedInstType::SimdSha256Hash2            0      0.00%     86.34% # Class of executed instruction. (Count)
system.switch_cpus.exec_context.thread_0.statExecutedInstType::SimdShaSigma2            0      0.00%     86.34% # Class of executed instruction. (Count)
system.switch_cpus.exec_context.thread_0.statExecutedInstType::SimdShaSigma3            0      0.00%     86.34% # Class of executed instruction. (Count)
system.switch_cpus.exec_context.thread_0.statExecutedInstType::SimdPredAlu            0      0.00%     86.34% # Class of executed instruction. (Count)
system.switch_cpus.exec_context.thread_0.statExecutedInstType::MemRead     98875655      9.53%     95.86% # Class of executed instruction. (Count)
system.switch_cpus.exec_context.thread_0.statExecutedInstType::MemWrite     42919998      4.13%    100.00% # Class of executed instruction. (Count)
system.switch_cpus.exec_context.thread_0.statExecutedInstType::FloatMemRead         8440      0.00%    100.00% # Class of executed instruction. (Count)
system.switch_cpus.exec_context.thread_0.statExecutedInstType::FloatMemWrite         6728      0.00%    100.00% # Class of executed instruction. (Count)
system.switch_cpus.exec_context.thread_0.statExecutedInstType::IprAccess            0      0.00%    100.00% # Class of executed instruction. (Count)
system.switch_cpus.exec_context.thread_0.statExecutedInstType::InstPrefetch            0      0.00%    100.00% # Class of executed instruction. (Count)
system.switch_cpus.exec_context.thread_0.statExecutedInstType::total   1038044677                       # Class of executed instruction. (Count)
system.switch_cpus.mmu.dtb.rdAccesses        98914861                       # TLB accesses on read requests (Count)
system.switch_cpus.mmu.dtb.wrAccesses        42957922                       # TLB accesses on write requests (Count)
system.switch_cpus.mmu.dtb.rdMisses             76645                       # TLB misses on read requests (Count)
system.switch_cpus.mmu.dtb.wrMisses              6647                       # TLB misses on write requests (Count)
system.switch_cpus.mmu.dtb.walker.power_state.pwrStateResidencyTicks::UNDEFINED 1285649106500                       # Cumulative time (in ticks) in various power states (Tick)
system.switch_cpus.mmu.itb.rdAccesses               0                       # TLB accesses on read requests (Count)
system.switch_cpus.mmu.itb.wrAccesses       932394786                       # TLB accesses on write requests (Count)
system.switch_cpus.mmu.itb.rdMisses                 0                       # TLB misses on read requests (Count)
system.switch_cpus.mmu.itb.wrMisses                16                       # TLB misses on write requests (Count)
system.switch_cpus.mmu.itb.walker.power_state.pwrStateResidencyTicks::UNDEFINED 1285649106500                       # Cumulative time (in ticks) in various power states (Tick)
system.switch_cpus.power_state.pwrStateResidencyTicks::OFF 1285649106500                       # Cumulative time (in ticks) in various power states (Tick)
system.switch_cpus.thread_0.numInsts                0                       # Number of Instructions committed (Count)
system.switch_cpus.thread_0.numOps                  0                       # Number of Ops committed (Count)
system.switch_cpus.thread_0.numMemRefs              0                       # Number of Memory References (Count)
system.tol2bus.transDist::ReadResp             410247                       # Transaction distribution (Count)
system.tol2bus.transDist::WritebackDirty       611846                       # Transaction distribution (Count)
system.tol2bus.transDist::WritebackClean       228537                       # Transaction distribution (Count)
system.tol2bus.transDist::CleanEvict           113617                       # Transaction distribution (Count)
system.tol2bus.transDist::ReadExReq            268644                       # Transaction distribution (Count)
system.tol2bus.transDist::ReadExResp           268644                       # Transaction distribution (Count)
system.tol2bus.transDist::ReadCleanReq              5                       # Transaction distribution (Count)
system.tol2bus.transDist::ReadSharedReq        410242                       # Transaction distribution (Count)
system.tol2bus.pktCount_system.cpu.icache.mem_side_port::system.l2.cpu_side_port           15                       # Packet count per connected requestor and responder (Count)
system.tol2bus.pktCount_system.cpu.dcache.mem_side_port::system.l2.cpu_side_port      2036658                       # Packet count per connected requestor and responder (Count)
system.tol2bus.pktCount::total                2036673                       # Packet count per connected requestor and responder (Count)
system.tol2bus.pktSize_system.cpu.icache.mem_side_port::system.l2.cpu_side_port          640                       # Cumulative packet size per connected requestor and responder (Byte)
system.tol2bus.pktSize_system.cpu.dcache.mem_side_port::system.l2.cpu_side_port     86897408                       # Cumulative packet size per connected requestor and responder (Byte)
system.tol2bus.pktSize::total                86898048                       # Cumulative packet size per connected requestor and responder (Byte)
system.tol2bus.snoops                          275109                       # Total snoops (Count)
system.tol2bus.snoopTraffic                  10335488                       # Total snoop traffic (Byte)
system.tol2bus.snoopFanout::samples            954000                       # Request fanout histogram (Count)
system.tol2bus.snoopFanout::mean             0.008872                       # Request fanout histogram (Count)
system.tol2bus.snoopFanout::stdev            0.093773                       # Request fanout histogram (Count)
system.tol2bus.snoopFanout::underflows              0      0.00%      0.00% # Request fanout histogram (Count)
system.tol2bus.snoopFanout::0                  945536     99.11%     99.11% # Request fanout histogram (Count)
system.tol2bus.snoopFanout::1                    8464      0.89%    100.00% # Request fanout histogram (Count)
system.tol2bus.snoopFanout::2                       0      0.00%    100.00% # Request fanout histogram (Count)
system.tol2bus.snoopFanout::3                       0      0.00%    100.00% # Request fanout histogram (Count)
system.tol2bus.snoopFanout::4                       0      0.00%    100.00% # Request fanout histogram (Count)
system.tol2bus.snoopFanout::overflows               0      0.00%    100.00% # Request fanout histogram (Count)
system.tol2bus.snoopFanout::min_value               0                       # Request fanout histogram (Count)
system.tol2bus.snoopFanout::max_value               1                       # Request fanout histogram (Count)
system.tol2bus.snoopFanout::total              954000                       # Request fanout histogram (Count)
system.tol2bus.power_state.pwrStateResidencyTicks::UNDEFINED 1285649106500                       # Cumulative time (in ticks) in various power states (Tick)
system.tol2bus.reqLayer0.occupancy         1357782000                       # Layer occupancy (ticks) (Tick)
system.tol2bus.reqLayer0.utilization              0.0                       # Layer utilization (Ratio)
system.tol2bus.respLayer0.occupancy              7500                       # Layer occupancy (ticks) (Tick)
system.tol2bus.respLayer0.utilization             0.0                       # Layer utilization (Ratio)
system.tol2bus.respLayer1.occupancy        1018329000                       # Layer occupancy (ticks) (Tick)
system.tol2bus.respLayer1.utilization             0.0                       # Layer utilization (Ratio)
system.tol2bus.snoop_filter.totRequests       1357782                       # Total number of requests made to the snoop filter. (Count)
system.tol2bus.snoop_filter.hitSingleRequests       678891                       # Number of requests hitting in the snoop filter with a single holder of the requested data. (Count)
system.tol2bus.snoop_filter.hitMultiRequests            0                       # Number of requests hitting in the snoop filter with multiple (>1) holders of the requested data. (Count)
system.tol2bus.snoop_filter.totSnoops            8464                       # Total number of snoops made to the snoop filter. (Count)
system.tol2bus.snoop_filter.hitSingleSnoops         8464                       # Number of snoops hitting in the snoop filter with a single holder of the requested data. (Count)
system.tol2bus.snoop_filter.hitMultiSnoops            0                       # Number of snoops hitting in the snoop filter with multiple (>1) holders of the requested data. (Count)
system.voltage_domain.voltage                       1                       # Voltage in Volts (Volt)
system.workload.inst.arm                            0                       # number of arm instructions executed (Count)
system.workload.inst.quiesce                        0                       # number of quiesce instructions executed (Count)

---------- End Simulation Statistics   ----------
